Initialize SIGNATURE TABLE
ST_SET: 1
ST_WAY: 256
ST_TAG_BIT: 16
ST_TAG_MASK: ffff

Initialize PATTERN TABLE
PT_SET: 512
PT_WAY: 4
SIG_DELTA_BIT: 7
C_SIG_BIT: 4
C_DELTA_BIT: 4

Initialize PREFETCH FILTER
FILTER_SET: 1024

*** ChampSim Multicore Out-of-Order Simulator ***

Warmup Instructions: 1000000
Simulation Instructions: 6000000
Number of CPUs: 1
LLC sets: 4096
LLC ways: 12
Off-chip DRAM Size: 4096 MB Channels: 1 Width: 64-bit Data Rate: 6400 MT/s
CPU 0 runs tracer/testcase/myTrace/test41-a-b.xz
.xz
BTB has LRU replacement policy
ITLB has LRU replacement policy
DTLB has LRU replacement policy
STLB has LRU replacement policy
L1I has LRU replacement policy
CPU 0 L1D IP-based stride prefetcher
L1D has LRU replacement policy
ST_WAYS: 256
PT_SETS: 512
Initialize SRRIP state for L2C
Initialize Mockingjay state for LLC
PC 7fafe0a26e46 1
PC 7fafe0a10575 1
PC 400465 1
PC 400475 100001
PC 7fafe0a2981e 1
PC 7fafe0a2982f 1
PC 7fafe0a2985d 1
PC 7fafe0a29876 1
PC 7fafe0a29883 1
PC 7fafe0a298a7 1
PC 7fafe0a299d7 1
PC 7faff506d18d 1
PC 7fafe0a8293d 1
PC 7fafe0a829ee 1
PC 7fafe0a829f9 1
PC 7fafe0a82a54 1
PC 7fafe0a82a5d 1
PC 7fafe0a82a63 1
PC 7fafe0a82a70 1
PC 7faff506d1b2 1
PC 7faff506d27f 1
PC 7faff506d2b0 1
PC 7faff506d2b4 1
PC 7faff506d2b0 1
PC 7faff506d2b4 1
PC 7faff506d2b0 1
PC 7faff506d2b4 1
PC 7faff506d2b0 1
PC 7faff506d2b4 1
PC 7faff506d2b0 1
PC 7faff506d2b4 1
PC 7faff506d2b0 1
PC 7faff506d2b4 1
PC 7faff506d2b0 1
PC 7faff506d2b4 1
PC 7faff506d2d7 7
PC 7faff506d2e1 1
PC 7faff506d2e5 1
PC 7faff5079c51 1
PC 7faff5079c6e 7
PC 7faff5079cb1 1
PC 7faff5079d08 1
PC 7faff5079cf7 1
PC 7faff5079d08 1
PC 7faff507985f 1
PC 7faff5079867 1
PC 7faff5079875 1
PC 7faff5079875 1
PC 7faff5079882 2
PC 7faff5079cf7 1
PC 7faff5079d08 1
PC 7faff507985f 1
PC 7faff5079867 1
PC 7faff5079875 1
PC 7faff5079875 1
PC 7faff5079882 2
PC 7faff5079cf7 1
PC 7faff5079d08 1
PC 7faff507985f 1
PC 7faff5079867 1
PC 7faff5079875 1
PC 7faff5079875 1
PC 7faff5079875 1
PC 7faff5079882 3
PC 7faff5079cf7 1
PC 7faff5079d08 1
PC 7faff507985f 1
PC 7faff5079867 1
PC 7faff5079875 1
PC 7faff5079875 1
PC 7faff5079875 1
PC 7faff5079875 1
PC 7faff5079882 4
PC 7faff5079cf7 1
PC 7faff5079d08 1
PC 7faff5079cf7 1
PC 7faff5079d08 1
PC 7faff507985f 1
PC 7faff5079867 1
PC 7faff5079875 1
PC 7faff5079875 1
PC 7faff5079875 1
PC 7faff5079875 1
PC 7faff5079875 1
PC 7faff5079875 1
PC 7faff5079882 6
PC 7faff5079d21 7
PC 7faff508cf8b 1
PC 7faff508d017 1
PC 7faff5079d8b 1
PC 7fafe0a84319 1
PC 7fafe0a843a7 1
PC 7fafe0a8433e 1
PC 7fafe0a84347 1
PC 7faff506d32d 1
PC 7faff506d35c 1
PC 7faff506928b 1
PC 7faff50692a3 1
PC 7faff50692b4 1
PC 40041b 1
PC 7faff50692d9 1
PC 7faff50692e5 1
PC 7faff5080eec 1
PC 7faff506d34f 1
PC 7faff506d34f 1
PC 7faff506d35c 2
PC 7faff506928b 1
PC 7faff50692a3 1
PC 7faff50692b4 1
PC 7fafe0c1b8db 1
PC 7fafe0c1b8e9 1
PC 7fafe0a2926c 1
PC 7fafe0a2927c 1
PC 7fafe0a29294 1
PC 7fafe0a29433 1
PC 7fafe0a29449 1
PC 7fafe0a29456 1
PC 7fafe0a29433 1
PC 7fafe0a29449 1
PC 7fafe0a29456 1
PC 7fafe0a29433 1
PC 7fafe0d2c44c 1
PC 7fafe0d2c451 1
PC 7fafe0a29449 1
PC 7fafe0a29456 1
PC 7fafe0a29433 1
PC 7fafe0c322c5 1
PC 7fafe0cb0bef 1
PC 7fafe0cb0e02 1
PC 7fafe0cb0c0a 1
PC 7fafe0a69127 1
PC 7fafe0a691cb 1
PC 7fafe0a6915c 1
PC 7fafe0a76c76 1
PC 7fafe0a69170 1
PC 7fafe0a69183 1
PC 7fafe0a69187 1
PC 7fafe0cb0c24 1
PC 7fafe0cb0bef 1
PC 7fafe0cb0db5 1
PC 7fafe0cb0bef 1
PC 7fafe0cb0e02 1
PC 7fafe0cb0c0a 1
PC 7fafe0a69127 1
PC 7fafe0a691cb 1
PC 7fafe0a6915c 1
PC 7fafe0a76c76 1
PC 7fafe0a69170 1
PC 7fafe0a69183 1
PC 7fafe0a69187 1
PC 7fafe0cb0c24 1
PC 7fafe0cb0ded 1
PC 7fafe0cb0c0a 1
PC 7fafe0a69127 1
PC 7fafe0a691cb 1
PC 7fafe0a6915c 1
PC 7fafe0a76c76 1
PC 7fafe0a69170 1
PC 7fafe0a69183 1
PC 7fafe0a69187 1
PC 7fafe0cb0c24 1
PC 7fafe0cb0c3a 1
PC 7fafe0cb0c41 1
PC 7fafe0cb0c4f 1
PC 7fafe0cb0c6b 1
PC 7fafe0a69127 1
PC 7fafe0a691cb 1
PC 7fafe0a6915c 1
PC 7fafe0a76c76 1
PC 7fafe0a69170 1
PC 7fafe0a69183 1
PC 7fafe0a69187 1
PC 7fafe0cb0c76 1
PC 7fafe0cb0bef 1
PC 7fafe0cb0e02 1
PC 7fafe0cb0c0a 1
PC 7fafe0a69127 1
PC 7fafe0a691cb 1
PC 7fafe0a6915c 1
PC 7fafe0a76c76 1
PC 7fafe0a69170 1
PC 7fafe0a69183 1
PC 7fafe0a69187 1
PC 7fafe0cb0c24 1
PC 7fafe0cb3b2f 1
PC 7fafe0cb3d42 1
PC 7fafe0cb3b4a 1
PC 7fafe0a69127 1
PC 7fafe0a691cb 1
PC 7fafe0a6915c 1
PC 7fafe0a76c76 1
PC 7fafe0a69170 1
PC 7fafe0a69183 1
PC 7fafe0a69187 1
PC 7fafe0cb3b64 1
PC 7fafe0cb3b2f 1
PC 7fafe0cb3cf5 1
PC 7fafe0cb3b2f 1
PC 7fafe0cb3d42 1
PC 7fafe0cb3b4a 1
PC 7fafe0a69127 1
PC 7fafe0a691cb 1
PC 7fafe0a6915c 1
PC 7fafe0a76c76 1
PC 7fafe0a69170 1
PC 7fafe0a69183 1
PC 7fafe0a69187 1
PC 7fafe0cb3b64 1
PC 7fafe0cb3d2d 1
PC 7fafe0cb3b4a 1
PC 7fafe0a69127 1
PC 7fafe0a691cb 1
PC 7fafe0a6915c 1
PC 7fafe0a76c76 1
PC 7fafe0a69170 1
PC 7fafe0a69183 1
PC 7fafe0a69187 1
PC 7fafe0cb3b64 1
PC 7fafe0cb3b7a 1
PC 7fafe0cb3b81 1
PC 7fafe0cb3b8f 1
PC 7fafe0cb3bab 1
PC 7fafe0a69127 1
PC 7fafe0a691cb 1
PC 7fafe0a6915c 1
PC 7fafe0a76c76 1
PC 7fafe0a69170 1
PC 7fafe0a69183 1
PC 7fafe0a69187 1
PC 7fafe0cb3bb6 1
PC 7fafe0cb3b2f 1
PC 7fafe0cb3d42 1
PC 7fafe0cb3b4a 1
PC 7fafe0a69127 1
PC 7fafe0a691cb 1
PC 7fafe0a6915c 1
PC 7fafe0a76c76 1
PC 7fafe0a69170 1
PC 7fafe0a69183 1
PC 7fafe0a69187 1
PC 7fafe0cb3b64 1
PC 7fafe0a29449 1
PC 7fafe0a29456 1
PC 7fafe0a29463 4
PC 7fafe0a292d6 1
PC 7fafe0a292e2 1
PC 7fafe0a29329 1
PC 7fafe0a2932e 1
PC 7fafe0ae941e 1
PC 7fafe0ae954b 1
PC 7fafe0a29341 1
PC 7faff50692d9 1
PC 7faff50692e5 1
PC 7faff5080eec 1
PC 7faff506d34f 1
PC 7faff506d35c 1
PC 7faff506928b 1
PC 7faff50692a3 1
PC 7faff50692b4 1
PC 7fafe0f0b8ab 1
PC 7fafe0f0b8b9 1
PC 7fafe0a2926c 1
PC 7fafe0a2927c 1
PC 7fafe0a29294 1
PC 7fafe0a29384 5
PC 7fafe0a2938d 1
PC 7fafe0a29397 1
PC 7fafe0a29384 1
PC 7fafe0a2938d 1
PC 7fafe0a29397 1
PC 7fafe0a293a0 2
PC 7fafe0a293a8 1
PC 7fafe0a292e2 1
PC 7fafe0a29329 1
PC 7fafe0a2932e 1
PC 7fafe0ae941e 1
PC 7fafe0ae954b 1
PC 7fafe0a29341 1
PC 7faff50692d9 1
PC 7faff50692e5 1
PC 7faff5080eec 1
PC 7faff506d34f 1
PC 7faff506d35c 1
PC 7faff506928b 1
PC 7faff50692a3 1
PC 7faff50692b4 1
PC 7fafe1254b61 1
PC 7fafe1254b61 1
PC 7fafe1255d3b 1
PC 7fafe1255d49 1
PC 7fafe0a2926c 1
PC 7fafe0a2927c 1
PC 7fafe0a29294 1
PC 7fafe0a29384 1
PC 7fafe0a2938d 1
PC 7fafe0a29397 1
PC 7fafe0a29384 1
PC 7fafe0a2938d 1
PC 7fafe0a29397 1
PC 7fafe0a293a0 2
PC 7fafe0a293a8 1
PC 7fafe0a292e2 1
PC 7fafe0a29329 1
PC 7fafe0a2932e 1
PC 7fafe0ae941e 1
PC 7fafe0ae954b 1
PC 7fafe0a29341 1
PC 7faff50692d9 2
PC 7faff50692e5 1
PC 7faff5080eec 1
PC 7faff506d34f 1
PC 7faff506d35c 1
PC 7faff506928b 1
PC 7faff5080eec 1
PC 7faff506d34f 1
PC 7faff506d35c 1
PC 7faff506928b 1
PC 7faff5080eec 1
PC 7faff506d1df 1
PC 7faff506d1e5 1
PC 7faff506d1fc 1
PC 7faff506d205 1
PC 7fafe0a29902 1
PC 7fafe0a298a7 1
PC 7fafe0a298b1 1
PC 7fafe0a29883 1
PC 7fafe0a298a7 1
PC 7fafe0a298b1 1
PC 7fafe0a29883 1
PC 7fafe0a298a7 1
PC 7fafe0a298b1 1
PC 7fafe0a29883 1
PC 7fafe0a298a7 1
PC 7fafe0a298b1 1
PC 7fafe0a2994e 1
PC 7fafe0a7c3a9 1
PC 7fafe0a79655 1
PC 7fafe0a79763 1
PC 7fafe0a79780 1
PC 7fafe0a797ba 1
PC 7fafe0a797c8 1
PC 7fafe0a797cf 1
PC 7fafe0a797dd 1
PC 7fafe0a796fc 1
PC 7fafe0a7970f 1
PC 7fafe0a79717 1
PC 7fafe0a79752 1
PC 7fafe0a79763 1
PC 7fafe0a79780 1
PC 7fafe0a797ba 1
PC 7fafe0a797c8 1
PC 7fafe0a797cf 1
PC 7fafe0a797dd 1
PC 7fafe0a796fc 1
PC 7fafe0a7970f 1
PC 7fafe0a79717 1
PC 7fafe0a79752 1
PC 7fafe0a79763 1
PC 7fafe0a79780 1
PC 7fafe0a797ba 1
PC 7fafe0a797c8 1
PC 7fafe0a797cf 1
PC 7fafe0a797dd 1
PC 7fafe0a796fc 1
PC 7fafe0a7970f 1
PC 7fafe0a79717 1
PC 7fafe0a798b7 1
PC 7fafe0a798c1 1
PC 7fafe0a798ee 1
PC 7fafe0a7c3a9 1
PC 7fafe0a79dad 1
PC 7fafe0a79e83 1
PC 7fafe0a79ea0 1
PC 7fafe0a79e29 1
PC 7fafe0a79e3c 1
PC 7fafe0a79e44 1
PC 7fafe0a79e72 1
PC 7fafe0a79e83 1
PC 7fafe0a79ea0 1
PC 7fafe0a79e0c 1
PC 7fafe0a79e16 1
PC 7fafe0a79e29 1
PC 7fafe0a79e3c 1
PC 7fafe0a79e44 1
PC 7fafe0a79e72 1
PC 7fafe0a79e83 1
PC 7fafe0a79ea0 1
PC 7fafe0a79e0c 1
PC 7fafe0a79e16 1
PC 7fafe0a79e29 1
PC 7fafe0a79e3c 1
PC 7fafe0a79e44 1
PC 7fafe0a7a017 1
PC 7fafe0a7a021 1
PC 7fafe0a7a04e 1
*** Reached end of trace for Core: 0 Repeating trace: tracer/testcase/myTrace/test41-a-b.xz
PC 7fafe0a26e46 1
PC 7fafe0a10575 1

Warmup complete CPU 0 instructions: 1000001 cycles: 287955 (Simulation time: 0 hr 0 min 1 sec) 

PC 400465 1
PC 400475 100001
PC 7fafe0a2981e 1
PC 7fafe0a2982f 1
PC 7fafe0a2985d 1
PC 7fafe0a29876 1
PC 7fafe0a29883 1
PC 7fafe0a298a7 1
PC 7fafe0a299d7 1
PC 7faff506d18d 1
PC 7fafe0a8293d 1
PC 7fafe0a829ee 1
PC 7fafe0a829f9 1
PC 7fafe0a82a54 1
PC 7fafe0a82a5d 1
PC 7fafe0a82a63 1
PC 7fafe0a82a70 1
PC 7faff506d1b2 1
PC 7faff506d27f 1
PC 7faff506d2b0 1
PC 7faff506d2b4 1
PC 7faff506d2b0 1
PC 7faff506d2b4 1
PC 7faff506d2b0 1
PC 7faff506d2b4 1
PC 7faff506d2b0 1
PC 7faff506d2b4 1
PC 7faff506d2b0 1
PC 7faff506d2b4 1
PC 7faff506d2b0 1
PC 7faff506d2b4 1
PC 7faff506d2b0 1
PC 7faff506d2b4 1
PC 7faff506d2d7 7
PC 7faff506d2e1 1
PC 7faff506d2e5 1
PC 7faff5079c51 1
PC 7faff5079c6e 7
PC 7faff5079cb1 1
PC 7faff5079d08 1
PC 7faff5079cf7 1
PC 7faff5079d08 1
PC 7faff507985f 1
PC 7faff5079867 1
PC 7faff5079875 1
PC 7faff5079875 1
PC 7faff5079882 2
PC 7faff5079cf7 1
PC 7faff5079d08 1
PC 7faff507985f 1
PC 7faff5079867 1
PC 7faff5079875 1
PC 7faff5079875 1
PC 7faff5079882 2
PC 7faff5079cf7 1
PC 7faff5079d08 1
PC 7faff507985f 1
PC 7faff5079867 1
PC 7faff5079875 1
PC 7faff5079875 1
PC 7faff5079875 1
PC 7faff5079882 3
PC 7faff5079cf7 1
PC 7faff5079d08 1
PC 7faff507985f 1
PC 7faff5079867 1
PC 7faff5079875 1
PC 7faff5079875 1
PC 7faff5079875 1
PC 7faff5079875 1
PC 7faff5079882 4
PC 7faff5079cf7 1
PC 7faff5079d08 1
PC 7faff5079cf7 1
PC 7faff5079d08 1
PC 7faff507985f 1
PC 7faff5079867 1
PC 7faff5079875 1
PC 7faff5079875 1
PC 7faff5079875 1
PC 7faff5079875 1
PC 7faff5079875 1
PC 7faff5079875 1
PC 7faff5079882 6
PC 7faff5079d21 7
PC 7faff508cf8b 1
PC 7faff508d017 1
PC 7faff5079d8b 1
PC 7fafe0a84319 1
PC 7fafe0a843a7 1
PC 7fafe0a8433e 1
PC 7fafe0a84347 1
PC 7faff506d32d 1
PC 7faff506d35c 1
PC 7faff506928b 1
PC 7faff50692a3 1
PC 7faff50692b4 1
PC 40041b 1
PC 7faff50692d9 1
PC 7faff50692e5 1
PC 7faff5080eec 1
PC 7faff506d34f 1
PC 7faff506d34f 1
PC 7faff506d35c 2
PC 7faff506928b 1
PC 7faff50692a3 1
PC 7faff50692b4 1
PC 7fafe0c1b8db 1
PC 7fafe0c1b8e9 1
PC 7fafe0a2926c 1
PC 7fafe0a2927c 1
PC 7fafe0a29294 1
PC 7fafe0a29433 1
PC 7fafe0a29449 1
PC 7fafe0a29456 1
PC 7fafe0a29433 1
PC 7fafe0a29449 1
PC 7fafe0a29456 1
PC 7fafe0a29433 1
PC 7fafe0d2c44c 1
PC 7fafe0d2c451 1
PC 7fafe0a29449 1
PC 7fafe0a29456 1
PC 7fafe0a29433 1
PC 7fafe0c322c5 1
PC 7fafe0cb0bef 1
PC 7fafe0cb0e02 1
PC 7fafe0cb0c0a 1
PC 7fafe0a69127 1
PC 7fafe0a691cb 1
PC 7fafe0a6915c 1
PC 7fafe0a76c76 1
PC 7fafe0a69170 1
PC 7fafe0a69183 1
PC 7fafe0a69187 1
PC 7fafe0cb0c24 1
PC 7fafe0cb0bef 1
PC 7fafe0cb0db5 1
PC 7fafe0cb0bef 1
PC 7fafe0cb0e02 1
PC 7fafe0cb0c0a 1
PC 7fafe0a69127 1
PC 7fafe0a691cb 1
PC 7fafe0a6915c 1
PC 7fafe0a76c76 1
PC 7fafe0a69170 1
PC 7fafe0a69183 1
PC 7fafe0a69187 1
PC 7fafe0cb0c24 1
PC 7fafe0cb0ded 1
PC 7fafe0cb0c0a 1
PC 7fafe0a69127 1
PC 7fafe0a691cb 1
PC 7fafe0a6915c 1
PC 7fafe0a76c76 1
PC 7fafe0a69170 1
PC 7fafe0a69183 1
PC 7fafe0a69187 1
PC 7fafe0cb0c24 1
PC 7fafe0cb0c3a 1
PC 7fafe0cb0c41 1
PC 7fafe0cb0c4f 1
PC 7fafe0cb0c6b 1
PC 7fafe0a69127 1
PC 7fafe0a691cb 1
PC 7fafe0a6915c 1
PC 7fafe0a76c76 1
PC 7fafe0a69170 1
PC 7fafe0a69183 1
PC 7fafe0a69187 1
PC 7fafe0cb0c76 1
PC 7fafe0cb0bef 1
PC 7fafe0cb0e02 1
PC 7fafe0cb0c0a 1
PC 7fafe0a69127 1
PC 7fafe0a691cb 1
PC 7fafe0a6915c 1
PC 7fafe0a76c76 1
PC 7fafe0a69170 1
PC 7fafe0a69183 1
PC 7fafe0a69187 1
PC 7fafe0cb0c24 1
PC 7fafe0cb3b2f 1
PC 7fafe0cb3d42 1
PC 7fafe0cb3b4a 1
PC 7fafe0a69127 1
PC 7fafe0a691cb 1
PC 7fafe0a6915c 1
PC 7fafe0a76c76 1
PC 7fafe0a69170 1
PC 7fafe0a69183 1
PC 7fafe0a69187 1
PC 7fafe0cb3b64 1
PC 7fafe0cb3b2f 1
PC 7fafe0cb3cf5 1
PC 7fafe0cb3b2f 1
PC 7fafe0cb3d42 1
PC 7fafe0cb3b4a 1
PC 7fafe0a69127 1
PC 7fafe0a691cb 1
PC 7fafe0a6915c 1
PC 7fafe0a76c76 1
PC 7fafe0a69170 1
PC 7fafe0a69183 1
PC 7fafe0a69187 1
PC 7fafe0cb3b64 1
PC 7fafe0cb3d2d 1
PC 7fafe0cb3b4a 1
PC 7fafe0a69127 1
PC 7fafe0a691cb 1
PC 7fafe0a6915c 1
PC 7fafe0a76c76 1
PC 7fafe0a69170 1
PC 7fafe0a69183 1
PC 7fafe0a69187 1
PC 7fafe0cb3b64 1
PC 7fafe0cb3b7a 1
PC 7fafe0cb3b81 1
PC 7fafe0cb3b8f 1
PC 7fafe0cb3bab 1
PC 7fafe0a69127 1
PC 7fafe0a691cb 1
PC 7fafe0a6915c 1
PC 7fafe0a76c76 1
PC 7fafe0a69170 1
PC 7fafe0a69183 1
PC 7fafe0a69187 1
PC 7fafe0cb3bb6 1
PC 7fafe0cb3b2f 1
PC 7fafe0cb3d42 1
PC 7fafe0cb3b4a 1
PC 7fafe0a69127 1
PC 7fafe0a691cb 1
PC 7fafe0a6915c 1
PC 7fafe0a76c76 1
PC 7fafe0a69170 1
PC 7fafe0a69183 1
PC 7fafe0a69187 1
PC 7fafe0cb3b64 1
PC 7fafe0a29449 1
PC 7fafe0a29456 1
PC 7fafe0a29463 4
PC 7fafe0a292d6 1
PC 7fafe0a292e2 1
PC 7fafe0a29329 1
PC 7fafe0a2932e 1
PC 7fafe0ae941e 1
PC 7fafe0ae954b 1
PC 7fafe0a29341 1
PC 7faff50692d9 1
PC 7faff50692e5 1
PC 7faff5080eec 1
PC 7faff506d34f 1
PC 7faff506d35c 1
PC 7faff506928b 1
PC 7faff50692a3 1
PC 7faff50692b4 1
PC 7fafe0f0b8ab 1
PC 7fafe0f0b8b9 1
PC 7fafe0a2926c 1
PC 7fafe0a2927c 1
PC 7fafe0a29294 1
PC 7fafe0a29384 5
PC 7fafe0a2938d 1
PC 7fafe0a29397 1
PC 7fafe0a29384 1
PC 7fafe0a2938d 1
PC 7fafe0a29397 1
PC 7fafe0a293a0 2
PC 7fafe0a293a8 1
PC 7fafe0a292e2 1
PC 7fafe0a29329 1
PC 7fafe0a2932e 1
PC 7fafe0ae941e 1
PC 7fafe0ae954b 1
PC 7fafe0a29341 1
PC 7faff50692d9 1
PC 7faff50692e5 1
PC 7faff5080eec 1
PC 7faff506d34f 1
PC 7faff506d35c 1
PC 7faff506928b 1
PC 7faff50692a3 1
PC 7faff50692b4 1
PC 7fafe1254b61 1
PC 7fafe1254b61 1
PC 7fafe1255d3b 1
PC 7fafe1255d49 1
PC 7fafe0a2926c 1
PC 7fafe0a2927c 1
PC 7fafe0a29294 1
PC 7fafe0a29384 1
PC 7fafe0a2938d 1
PC 7fafe0a29397 1
PC 7fafe0a29384 1
PC 7fafe0a2938d 1
PC 7fafe0a29397 1
PC 7fafe0a293a0 2
PC 7fafe0a293a8 1
PC 7fafe0a292e2 1
PC 7fafe0a29329 1
PC 7fafe0a2932e 1
PC 7fafe0ae941e 1
PC 7fafe0ae954b 1
PC 7fafe0a29341 1
PC 7faff50692d9 2
PC 7faff50692e5 1
PC 7faff5080eec 1
PC 7faff506d34f 1
PC 7faff506d35c 1
PC 7faff506928b 1
PC 7faff5080eec 1
PC 7faff506d34f 1
PC 7faff506d35c 1
PC 7faff506928b 1
PC 7faff5080eec 1
PC 7faff506d1df 1
PC 7faff506d1e5 1
PC 7faff506d1fc 1
PC 7faff506d205 1
PC 7fafe0a29902 1
PC 7fafe0a298a7 1
PC 7fafe0a298b1 1
PC 7fafe0a29883 1
PC 7fafe0a298a7 1
PC 7fafe0a298b1 1
PC 7fafe0a29883 1
PC 7fafe0a298a7 1
PC 7fafe0a298b1 1
PC 7fafe0a29883 1
PC 7fafe0a298a7 1
PC 7fafe0a298b1 1
PC 7fafe0a2994e 1
PC 7fafe0a7c3a9 1
PC 7fafe0a79655 1
PC 7fafe0a79763 1
PC 7fafe0a79780 1
PC 7fafe0a797ba 1
PC 7fafe0a797c8 1
PC 7fafe0a797cf 1
PC 7fafe0a797dd 1
PC 7fafe0a796fc 1
PC 7fafe0a7970f 1
PC 7fafe0a79717 1
PC 7fafe0a79752 1
PC 7fafe0a79763 1
PC 7fafe0a79780 1
PC 7fafe0a797ba 1
PC 7fafe0a797c8 1
PC 7fafe0a797cf 1
PC 7fafe0a797dd 1
PC 7fafe0a796fc 1
PC 7fafe0a7970f 1
PC 7fafe0a79717 1
PC 7fafe0a79752 1
PC 7fafe0a79763 1
PC 7fafe0a79780 1
PC 7fafe0a797ba 1
PC 7fafe0a797c8 1
PC 7fafe0a797cf 1
PC 7fafe0a797dd 1
PC 7fafe0a796fc 1
PC 7fafe0a7970f 1
PC 7fafe0a79717 1
PC 7fafe0a798b7 1
PC 7fafe0a798c1 1
PC 7fafe0a798ee 1
PC 7fafe0a7c3a9 1
PC 7fafe0a79dad 1
PC 7fafe0a79e83 1
PC 7fafe0a79ea0 1
PC 7fafe0a79e29 1
PC 7fafe0a79e3c 1
PC 7fafe0a79e44 1
PC 7fafe0a79e72 1
PC 7fafe0a79e83 1
PC 7fafe0a79ea0 1
PC 7fafe0a79e0c 1
PC 7fafe0a79e16 1
PC 7fafe0a79e29 1
PC 7fafe0a79e3c 1
PC 7fafe0a79e44 1
PC 7fafe0a79e72 1
PC 7fafe0a79e83 1
PC 7fafe0a79ea0 1
PC 7fafe0a79e0c 1
PC 7fafe0a79e16 1
PC 7fafe0a79e29 1
PC 7fafe0a79e3c 1
PC 7fafe0a79e44 1
PC 7fafe0a7a017 1
PC 7fafe0a7a021 1
PC 7fafe0a7a04e 1
*** Reached end of trace for Core: 0 Repeating trace: tracer/testcase/myTrace/test41-a-b.xz
PC 7fafe0a26e46 1
PC 7fafe0a10575 1
PC 400465 1
PC 400475 100001
PC 7fafe0a2981e 1
PC 7fafe0a2982f 1
PC 7fafe0a2985d 1
PC 7fafe0a29876 1
PC 7fafe0a29883 1
PC 7fafe0a298a7 1
PC 7fafe0a299d7 1
PC 7faff506d18d 1
PC 7fafe0a8293d 1
PC 7fafe0a829ee 1
PC 7fafe0a829f9 1
PC 7fafe0a82a54 1
PC 7fafe0a82a5d 1
PC 7fafe0a82a63 1
PC 7fafe0a82a70 1
PC 7faff506d1b2 1
PC 7faff506d27f 1
PC 7faff506d2b0 1
PC 7faff506d2b4 1
PC 7faff506d2b0 1
PC 7faff506d2b4 1
PC 7faff506d2b0 1
PC 7faff506d2b4 1
PC 7faff506d2b0 1
PC 7faff506d2b4 1
PC 7faff506d2b0 1
PC 7faff506d2b4 1
PC 7faff506d2b0 1
PC 7faff506d2b4 1
PC 7faff506d2b0 1
PC 7faff506d2b4 1
PC 7faff506d2d7 7
PC 7faff506d2e1 1
PC 7faff506d2e5 1
PC 7faff5079c51 1
PC 7faff5079c6e 7
PC 7faff5079cb1 1
PC 7faff5079d08 1
PC 7faff5079cf7 1
PC 7faff5079d08 1
PC 7faff507985f 1
PC 7faff5079867 1
PC 7faff5079875 1
PC 7faff5079875 1
PC 7faff5079882 2
PC 7faff5079cf7 1
PC 7faff5079d08 1
PC 7faff507985f 1
PC 7faff5079867 1
PC 7faff5079875 1
PC 7faff5079875 1
PC 7faff5079882 2
PC 7faff5079cf7 1
PC 7faff5079d08 1
PC 7faff507985f 1
PC 7faff5079867 1
PC 7faff5079875 1
PC 7faff5079875 1
PC 7faff5079875 1
PC 7faff5079882 3
PC 7faff5079cf7 1
PC 7faff5079d08 1
PC 7faff507985f 1
PC 7faff5079867 1
PC 7faff5079875 1
PC 7faff5079875 1
PC 7faff5079875 1
PC 7faff5079875 1
PC 7faff5079882 4
PC 7faff5079cf7 1
PC 7faff5079d08 1
PC 7faff5079cf7 1
PC 7faff5079d08 1
PC 7faff507985f 1
PC 7faff5079867 1
PC 7faff5079875 1
PC 7faff5079875 1
PC 7faff5079875 1
PC 7faff5079875 1
PC 7faff5079875 1
PC 7faff5079875 1
PC 7faff5079882 6
PC 7faff5079d21 7
PC 7faff508cf8b 1
PC 7faff508d017 1
PC 7faff5079d8b 1
PC 7fafe0a84319 1
PC 7fafe0a843a7 1
PC 7fafe0a8433e 1
PC 7fafe0a84347 1
PC 7faff506d32d 1
PC 7faff506d35c 1
PC 7faff506928b 1
PC 7faff50692a3 1
PC 7faff50692b4 1
PC 40041b 1
PC 7faff50692d9 1
PC 7faff50692e5 1
PC 7faff5080eec 1
PC 7faff506d34f 1
PC 7faff506d34f 1
PC 7faff506d35c 2
PC 7faff506928b 1
PC 7faff50692a3 1
PC 7faff50692b4 1
PC 7fafe0c1b8db 1
PC 7fafe0c1b8e9 1
PC 7fafe0a2926c 1
PC 7fafe0a2927c 1
PC 7fafe0a29294 1
PC 7fafe0a29433 1
PC 7fafe0a29449 1
PC 7fafe0a29456 1
PC 7fafe0a29433 1
PC 7fafe0a29449 1
PC 7fafe0a29456 1
PC 7fafe0a29433 1
PC 7fafe0d2c44c 1
PC 7fafe0d2c451 1
PC 7fafe0a29449 1
PC 7fafe0a29456 1
PC 7fafe0a29433 1
PC 7fafe0c322c5 1
PC 7fafe0cb0bef 1
PC 7fafe0cb0e02 1
PC 7fafe0cb0c0a 1
PC 7fafe0a69127 1
PC 7fafe0a691cb 1
PC 7fafe0a6915c 1
PC 7fafe0a76c76 1
PC 7fafe0a69170 1
PC 7fafe0a69183 1
PC 7fafe0a69187 1
PC 7fafe0cb0c24 1
PC 7fafe0cb0bef 1
PC 7fafe0cb0db5 1
PC 7fafe0cb0bef 1
PC 7fafe0cb0e02 1
PC 7fafe0cb0c0a 1
PC 7fafe0a69127 1
PC 7fafe0a691cb 1
PC 7fafe0a6915c 1
PC 7fafe0a76c76 1
PC 7fafe0a69170 1
PC 7fafe0a69183 1
PC 7fafe0a69187 1
PC 7fafe0cb0c24 1
PC 7fafe0cb0ded 1
PC 7fafe0cb0c0a 1
PC 7fafe0a69127 1
PC 7fafe0a691cb 1
PC 7fafe0a6915c 1
PC 7fafe0a76c76 1
PC 7fafe0a69170 1
PC 7fafe0a69183 1
PC 7fafe0a69187 1
PC 7fafe0cb0c24 1
PC 7fafe0cb0c3a 1
PC 7fafe0cb0c41 1
PC 7fafe0cb0c4f 1
PC 7fafe0cb0c6b 1
PC 7fafe0a69127 1
PC 7fafe0a691cb 1
PC 7fafe0a6915c 1
PC 7fafe0a76c76 1
PC 7fafe0a69170 1
PC 7fafe0a69183 1
PC 7fafe0a69187 1
PC 7fafe0cb0c76 1
PC 7fafe0cb0bef 1
PC 7fafe0cb0e02 1
PC 7fafe0cb0c0a 1
PC 7fafe0a69127 1
PC 7fafe0a691cb 1
PC 7fafe0a6915c 1
PC 7fafe0a76c76 1
PC 7fafe0a69170 1
PC 7fafe0a69183 1
PC 7fafe0a69187 1
PC 7fafe0cb0c24 1
PC 7fafe0cb3b2f 1
PC 7fafe0cb3d42 1
PC 7fafe0cb3b4a 1
PC 7fafe0a69127 1
PC 7fafe0a691cb 1
PC 7fafe0a6915c 1
PC 7fafe0a76c76 1
PC 7fafe0a69170 1
PC 7fafe0a69183 1
PC 7fafe0a69187 1
PC 7fafe0cb3b64 1
PC 7fafe0cb3b2f 1
PC 7fafe0cb3cf5 1
PC 7fafe0cb3b2f 1
PC 7fafe0cb3d42 1
PC 7fafe0cb3b4a 1
PC 7fafe0a69127 1
PC 7fafe0a691cb 1
PC 7fafe0a6915c 1
PC 7fafe0a76c76 1
PC 7fafe0a69170 1
PC 7fafe0a69183 1
PC 7fafe0a69187 1
PC 7fafe0cb3b64 1
PC 7fafe0cb3d2d 1
PC 7fafe0cb3b4a 1
PC 7fafe0a69127 1
PC 7fafe0a691cb 1
PC 7fafe0a6915c 1
PC 7fafe0a76c76 1
PC 7fafe0a69170 1
PC 7fafe0a69183 1
PC 7fafe0a69187 1
PC 7fafe0cb3b64 1
PC 7fafe0cb3b7a 1
PC 7fafe0cb3b81 1
PC 7fafe0cb3b8f 1
PC 7fafe0cb3bab 1
PC 7fafe0a69127 1
PC 7fafe0a691cb 1
PC 7fafe0a6915c 1
PC 7fafe0a76c76 1
PC 7fafe0a69170 1
PC 7fafe0a69183 1
PC 7fafe0a69187 1
PC 7fafe0cb3bb6 1
PC 7fafe0cb3b2f 1
PC 7fafe0cb3d42 1
PC 7fafe0cb3b4a 1
PC 7fafe0a69127 1
PC 7fafe0a691cb 1
PC 7fafe0a6915c 1
PC 7fafe0a76c76 1
PC 7fafe0a69170 1
PC 7fafe0a69183 1
PC 7fafe0a69187 1
PC 7fafe0cb3b64 1
PC 7fafe0a29449 1
PC 7fafe0a29456 1
PC 7fafe0a29463 4
PC 7fafe0a292d6 1
PC 7fafe0a292e2 1
PC 7fafe0a29329 1
PC 7fafe0a2932e 1
PC 7fafe0ae941e 1
PC 7fafe0ae954b 1
PC 7fafe0a29341 1
PC 7faff50692d9 1
PC 7faff50692e5 1
PC 7faff5080eec 1
PC 7faff506d34f 1
PC 7faff506d35c 1
PC 7faff506928b 1
PC 7faff50692a3 1
PC 7faff50692b4 1
PC 7fafe0f0b8ab 1
PC 7fafe0f0b8b9 1
PC 7fafe0a2926c 1
PC 7fafe0a2927c 1
PC 7fafe0a29294 1
PC 7fafe0a29384 5
PC 7fafe0a2938d 1
PC 7fafe0a29397 1
PC 7fafe0a29384 1
PC 7fafe0a2938d 1
PC 7fafe0a29397 1
PC 7fafe0a293a0 2
PC 7fafe0a293a8 1
PC 7fafe0a292e2 1
PC 7fafe0a29329 1
PC 7fafe0a2932e 1
PC 7fafe0ae941e 1
PC 7fafe0ae954b 1
PC 7fafe0a29341 1
PC 7faff50692d9 1
PC 7faff50692e5 1
PC 7faff5080eec 1
PC 7faff506d34f 1
PC 7faff506d35c 1
PC 7faff506928b 1
PC 7faff50692a3 1
PC 7faff50692b4 1
PC 7fafe1254b61 1
PC 7fafe1254b61 1
PC 7fafe1255d3b 1
PC 7fafe1255d49 1
PC 7fafe0a2926c 1
PC 7fafe0a2927c 1
PC 7fafe0a29294 1
PC 7fafe0a29384 1
PC 7fafe0a2938d 1
PC 7fafe0a29397 1
PC 7fafe0a29384 1
PC 7fafe0a2938d 1
PC 7fafe0a29397 1
PC 7fafe0a293a0 2
PC 7fafe0a293a8 1
PC 7fafe0a292e2 1
PC 7fafe0a29329 1
PC 7fafe0a2932e 1
PC 7fafe0ae941e 1
PC 7fafe0ae954b 1
PC 7fafe0a29341 1
PC 7faff50692d9 2
PC 7faff50692e5 1
PC 7faff5080eec 1
PC 7faff506d34f 1
PC 7faff506d35c 1
PC 7faff506928b 1
PC 7faff5080eec 1
PC 7faff506d34f 1
PC 7faff506d35c 1
PC 7faff506928b 1
PC 7faff5080eec 1
PC 7faff506d1df 1
PC 7faff506d1e5 1
PC 7faff506d1fc 1
PC 7faff506d205 1
PC 7fafe0a29902 1
PC 7fafe0a298a7 1
PC 7fafe0a298b1 1
PC 7fafe0a29883 1
PC 7fafe0a298a7 1
PC 7fafe0a298b1 1
PC 7fafe0a29883 1
PC 7fafe0a298a7 1
PC 7fafe0a298b1 1
PC 7fafe0a29883 1
PC 7fafe0a298a7 1
PC 7fafe0a298b1 1
PC 7fafe0a2994e 1
PC 7fafe0a7c3a9 1
PC 7fafe0a79655 1
PC 7fafe0a79763 1
PC 7fafe0a79780 1
PC 7fafe0a797ba 1
PC 7fafe0a797c8 1
PC 7fafe0a797cf 1
PC 7fafe0a797dd 1
PC 7fafe0a796fc 1
PC 7fafe0a7970f 1
PC 7fafe0a79717 1
PC 7fafe0a79752 1
PC 7fafe0a79763 1
PC 7fafe0a79780 1
PC 7fafe0a797ba 1
PC 7fafe0a797c8 1
PC 7fafe0a797cf 1
PC 7fafe0a797dd 1
PC 7fafe0a796fc 1
PC 7fafe0a7970f 1
PC 7fafe0a79717 1
PC 7fafe0a79752 1
PC 7fafe0a79763 1
PC 7fafe0a79780 1
PC 7fafe0a797ba 1
PC 7fafe0a797c8 1
PC 7fafe0a797cf 1
PC 7fafe0a797dd 1
PC 7fafe0a796fc 1
PC 7fafe0a7970f 1
PC 7fafe0a79717 1
PC 7fafe0a798b7 1
PC 7fafe0a798c1 1
PC 7fafe0a798ee 1
PC 7fafe0a7c3a9 1
PC 7fafe0a79dad 1
PC 7fafe0a79e83 1
PC 7fafe0a79ea0 1
PC 7fafe0a79e29 1
PC 7fafe0a79e3c 1
PC 7fafe0a79e44 1
PC 7fafe0a79e72 1
PC 7fafe0a79e83 1
PC 7fafe0a79ea0 1
PC 7fafe0a79e0c 1
PC 7fafe0a79e16 1
PC 7fafe0a79e29 1
PC 7fafe0a79e3c 1
PC 7fafe0a79e44 1
PC 7fafe0a79e72 1
PC 7fafe0a79e83 1
PC 7fafe0a79ea0 1
PC 7fafe0a79e0c 1
PC 7fafe0a79e16 1
PC 7fafe0a79e29 1
PC 7fafe0a79e3c 1
PC 7fafe0a79e44 1
PC 7fafe0a7a017 1
PC 7fafe0a7a021 1
PC 7fafe0a7a04e 1
*** Reached end of trace for Core: 0 Repeating trace: tracer/testcase/myTrace/test41-a-b.xz
PC 7fafe0a26e46 1
PC 7fafe0a10575 1
PC 400465 1
PC 400475 100001
PC 7fafe0a2981e 1
PC 7fafe0a2982f 1
PC 7fafe0a2985d 1
PC 7fafe0a29876 1
PC 7fafe0a29883 1
PC 7fafe0a298a7 1
PC 7fafe0a299d7 1
PC 7faff506d18d 1
PC 7fafe0a8293d 1
PC 7fafe0a829ee 1
PC 7fafe0a829f9 1
PC 7fafe0a82a54 1
PC 7fafe0a82a5d 1
PC 7fafe0a82a63 1
PC 7fafe0a82a70 1
PC 7faff506d1b2 1
PC 7faff506d27f 1
PC 7faff506d2b0 1
PC 7faff506d2b4 1
PC 7faff506d2b0 1
PC 7faff506d2b4 1
PC 7faff506d2b0 1
PC 7faff506d2b4 1
PC 7faff506d2b0 1
PC 7faff506d2b4 1
PC 7faff506d2b0 1
PC 7faff506d2b4 1
PC 7faff506d2b0 1
PC 7faff506d2b4 1
PC 7faff506d2b0 1
PC 7faff506d2b4 1
PC 7faff506d2d7 7
PC 7faff506d2e1 1
PC 7faff506d2e5 1
PC 7faff5079c51 1
PC 7faff5079c6e 7
PC 7faff5079cb1 1
PC 7faff5079d08 1
PC 7faff5079cf7 1
PC 7faff5079d08 1
PC 7faff507985f 1
PC 7faff5079867 1
PC 7faff5079875 1
PC 7faff5079875 1
PC 7faff5079882 2
PC 7faff5079cf7 1
PC 7faff5079d08 1
PC 7faff507985f 1
PC 7faff5079867 1
PC 7faff5079875 1
PC 7faff5079875 1
PC 7faff5079882 2
PC 7faff5079cf7 1
PC 7faff5079d08 1
PC 7faff507985f 1
PC 7faff5079867 1
PC 7faff5079875 1
PC 7faff5079875 1
PC 7faff5079875 1
PC 7faff5079882 3
PC 7faff5079cf7 1
PC 7faff5079d08 1
PC 7faff507985f 1
PC 7faff5079867 1
PC 7faff5079875 1
PC 7faff5079875 1
PC 7faff5079875 1
PC 7faff5079875 1
PC 7faff5079882 4
PC 7faff5079cf7 1
PC 7faff5079d08 1
PC 7faff5079cf7 1
PC 7faff5079d08 1
PC 7faff507985f 1
PC 7faff5079867 1
PC 7faff5079875 1
PC 7faff5079875 1
PC 7faff5079875 1
PC 7faff5079875 1
PC 7faff5079875 1
PC 7faff5079875 1
PC 7faff5079882 6
PC 7faff5079d21 7
PC 7faff508cf8b 1
PC 7faff508d017 1
PC 7faff5079d8b 1
PC 7fafe0a84319 1
PC 7fafe0a843a7 1
PC 7fafe0a8433e 1
PC 7fafe0a84347 1
PC 7faff506d32d 1
PC 7faff506d35c 1
PC 7faff506928b 1
PC 7faff50692a3 1
PC 7faff50692b4 1
PC 40041b 1
PC 7faff50692d9 1
PC 7faff50692e5 1
PC 7faff5080eec 1
PC 7faff506d34f 1
PC 7faff506d34f 1
PC 7faff506d35c 2
PC 7faff506928b 1
PC 7faff50692a3 1
PC 7faff50692b4 1
PC 7fafe0c1b8db 1
PC 7fafe0c1b8e9 1
PC 7fafe0a2926c 1
PC 7fafe0a2927c 1
PC 7fafe0a29294 1
PC 7fafe0a29433 1
PC 7fafe0a29449 1
PC 7fafe0a29456 1
PC 7fafe0a29433 1
PC 7fafe0a29449 1
PC 7fafe0a29456 1
PC 7fafe0a29433 1
PC 7fafe0d2c44c 1
PC 7fafe0d2c451 1
PC 7fafe0a29449 1
PC 7fafe0a29456 1
PC 7fafe0a29433 1
PC 7fafe0c322c5 1
PC 7fafe0cb0bef 1
PC 7fafe0cb0e02 1
PC 7fafe0cb0c0a 1
PC 7fafe0a69127 1
PC 7fafe0a691cb 1
PC 7fafe0a6915c 1
PC 7fafe0a76c76 1
PC 7fafe0a69170 1
PC 7fafe0a69183 1
PC 7fafe0a69187 1
PC 7fafe0cb0c24 1
PC 7fafe0cb0bef 1
PC 7fafe0cb0db5 1
PC 7fafe0cb0bef 1
PC 7fafe0cb0e02 1
PC 7fafe0cb0c0a 1
PC 7fafe0a69127 1
PC 7fafe0a691cb 1
PC 7fafe0a6915c 1
PC 7fafe0a76c76 1
PC 7fafe0a69170 1
PC 7fafe0a69183 1
PC 7fafe0a69187 1
PC 7fafe0cb0c24 1
PC 7fafe0cb0ded 1
PC 7fafe0cb0c0a 1
PC 7fafe0a69127 1
PC 7fafe0a691cb 1
PC 7fafe0a6915c 1
PC 7fafe0a76c76 1
PC 7fafe0a69170 1
PC 7fafe0a69183 1
PC 7fafe0a69187 1
PC 7fafe0cb0c24 1
PC 7fafe0cb0c3a 1
PC 7fafe0cb0c41 1
PC 7fafe0cb0c4f 1
PC 7fafe0cb0c6b 1
PC 7fafe0a69127 1
PC 7fafe0a691cb 1
PC 7fafe0a6915c 1
PC 7fafe0a76c76 1
PC 7fafe0a69170 1
PC 7fafe0a69183 1
PC 7fafe0a69187 1
PC 7fafe0cb0c76 1
PC 7fafe0cb0bef 1
PC 7fafe0cb0e02 1
PC 7fafe0cb0c0a 1
PC 7fafe0a69127 1
PC 7fafe0a691cb 1
PC 7fafe0a6915c 1
PC 7fafe0a76c76 1
PC 7fafe0a69170 1
PC 7fafe0a69183 1
PC 7fafe0a69187 1
PC 7fafe0cb0c24 1
PC 7fafe0cb3b2f 1
PC 7fafe0cb3d42 1
PC 7fafe0cb3b4a 1
PC 7fafe0a69127 1
PC 7fafe0a691cb 1
PC 7fafe0a6915c 1
PC 7fafe0a76c76 1
PC 7fafe0a69170 1
PC 7fafe0a69183 1
PC 7fafe0a69187 1
PC 7fafe0cb3b64 1
PC 7fafe0cb3b2f 1
PC 7fafe0cb3cf5 1
PC 7fafe0cb3b2f 1
PC 7fafe0cb3d42 1
PC 7fafe0cb3b4a 1
PC 7fafe0a69127 1
PC 7fafe0a691cb 1
PC 7fafe0a6915c 1
PC 7fafe0a76c76 1
PC 7fafe0a69170 1
PC 7fafe0a69183 1
PC 7fafe0a69187 1
PC 7fafe0cb3b64 1
PC 7fafe0cb3d2d 1
PC 7fafe0cb3b4a 1
PC 7fafe0a69127 1
PC 7fafe0a691cb 1
PC 7fafe0a6915c 1
PC 7fafe0a76c76 1
PC 7fafe0a69170 1
PC 7fafe0a69183 1
PC 7fafe0a69187 1
PC 7fafe0cb3b64 1
PC 7fafe0cb3b7a 1
PC 7fafe0cb3b81 1
PC 7fafe0cb3b8f 1
PC 7fafe0cb3bab 1
PC 7fafe0a69127 1
PC 7fafe0a691cb 1
PC 7fafe0a6915c 1
PC 7fafe0a76c76 1
PC 7fafe0a69170 1
PC 7fafe0a69183 1
PC 7fafe0a69187 1
PC 7fafe0cb3bb6 1
PC 7fafe0cb3b2f 1
PC 7fafe0cb3d42 1
PC 7fafe0cb3b4a 1
PC 7fafe0a69127 1
PC 7fafe0a691cb 1
PC 7fafe0a6915c 1
PC 7fafe0a76c76 1
PC 7fafe0a69170 1
PC 7fafe0a69183 1
PC 7fafe0a69187 1
PC 7fafe0cb3b64 1
PC 7fafe0a29449 1
PC 7fafe0a29456 1
PC 7fafe0a29463 4
PC 7fafe0a292d6 1
PC 7fafe0a292e2 1
PC 7fafe0a29329 1
PC 7fafe0a2932e 1
PC 7fafe0ae941e 1
PC 7fafe0ae954b 1
PC 7fafe0a29341 1
PC 7faff50692d9 1
PC 7faff50692e5 1
PC 7faff5080eec 1
PC 7faff506d34f 1
PC 7faff506d35c 1
PC 7faff506928b 1
PC 7faff50692a3 1
PC 7faff50692b4 1
PC 7fafe0f0b8ab 1
PC 7fafe0f0b8b9 1
PC 7fafe0a2926c 1
PC 7fafe0a2927c 1
PC 7fafe0a29294 1
PC 7fafe0a29384 5
PC 7fafe0a2938d 1
PC 7fafe0a29397 1
PC 7fafe0a29384 1
PC 7fafe0a2938d 1
PC 7fafe0a29397 1
PC 7fafe0a293a0 2
PC 7fafe0a293a8 1
PC 7fafe0a292e2 1
PC 7fafe0a29329 1
PC 7fafe0a2932e 1
PC 7fafe0ae941e 1
PC 7fafe0ae954b 1
PC 7fafe0a29341 1
PC 7faff50692d9 1
PC 7faff50692e5 1
PC 7faff5080eec 1
PC 7faff506d34f 1
PC 7faff506d35c 1
PC 7faff506928b 1
PC 7faff50692a3 1
PC 7faff50692b4 1
PC 7fafe1254b61 1
PC 7fafe1254b61 1
PC 7fafe1255d3b 1
PC 7fafe1255d49 1
PC 7fafe0a2926c 1
PC 7fafe0a2927c 1
PC 7fafe0a29294 1
PC 7fafe0a29384 1
PC 7fafe0a2938d 1
PC 7fafe0a29397 1
PC 7fafe0a29384 1
PC 7fafe0a2938d 1
PC 7fafe0a29397 1
PC 7fafe0a293a0 2
PC 7fafe0a293a8 1
PC 7fafe0a292e2 1
PC 7fafe0a29329 1
PC 7fafe0a2932e 1
PC 7fafe0ae941e 1
PC 7fafe0ae954b 1
PC 7fafe0a29341 1
PC 7faff50692d9 2
PC 7faff50692e5 1
PC 7faff5080eec 1
PC 7faff506d34f 1
PC 7faff506d35c 1
PC 7faff506928b 1
PC 7faff5080eec 1
PC 7faff506d34f 1
PC 7faff506d35c 1
PC 7faff506928b 1
PC 7faff5080eec 1
PC 7faff506d1df 1
PC 7faff506d1e5 1
PC 7faff506d1fc 1
PC 7faff506d205 1
PC 7fafe0a29902 1
PC 7fafe0a298a7 1
PC 7fafe0a298b1 1
PC 7fafe0a29883 1
PC 7fafe0a298a7 1
PC 7fafe0a298b1 1
PC 7fafe0a29883 1
PC 7fafe0a298a7 1
PC 7fafe0a298b1 1
PC 7fafe0a29883 1
PC 7fafe0a298a7 1
PC 7fafe0a298b1 1
PC 7fafe0a2994e 1
PC 7fafe0a7c3a9 1
PC 7fafe0a79655 1
PC 7fafe0a79763 1
PC 7fafe0a79780 1
PC 7fafe0a797ba 1
PC 7fafe0a797c8 1
PC 7fafe0a797cf 1
PC 7fafe0a797dd 1
PC 7fafe0a796fc 1
PC 7fafe0a7970f 1
PC 7fafe0a79717 1
PC 7fafe0a79752 1
PC 7fafe0a79763 1
PC 7fafe0a79780 1
PC 7fafe0a797ba 1
PC 7fafe0a797c8 1
PC 7fafe0a797cf 1
PC 7fafe0a797dd 1
PC 7fafe0a796fc 1
PC 7fafe0a7970f 1
PC 7fafe0a79717 1
PC 7fafe0a79752 1
PC 7fafe0a79763 1
PC 7fafe0a79780 1
PC 7fafe0a797ba 1
PC 7fafe0a797c8 1
PC 7fafe0a797cf 1
PC 7fafe0a797dd 1
PC 7fafe0a796fc 1
PC 7fafe0a7970f 1
PC 7fafe0a79717 1
PC 7fafe0a798b7 1
PC 7fafe0a798c1 1
PC 7fafe0a798ee 1
PC 7fafe0a7c3a9 1
PC 7fafe0a79dad 1
PC 7fafe0a79e83 1
PC 7fafe0a79ea0 1
PC 7fafe0a79e29 1
PC 7fafe0a79e3c 1
PC 7fafe0a79e44 1
PC 7fafe0a79e72 1
PC 7fafe0a79e83 1
PC 7fafe0a79ea0 1
PC 7fafe0a79e0c 1
PC 7fafe0a79e16 1
PC 7fafe0a79e29 1
PC 7fafe0a79e3c 1
PC 7fafe0a79e44 1
PC 7fafe0a79e72 1
PC 7fafe0a79e83 1
PC 7fafe0a79ea0 1
PC 7fafe0a79e0c 1
PC 7fafe0a79e16 1
PC 7fafe0a79e29 1
PC 7fafe0a79e3c 1
PC 7fafe0a79e44 1
PC 7fafe0a7a017 1
PC 7fafe0a7a021 1
PC 7fafe0a7a04e 1
*** Reached end of trace for Core: 0 Repeating trace: tracer/testcase/myTrace/test41-a-b.xz
PC 7fafe0a26e46 1
PC 7fafe0a10575 1
PC 400465 1
PC 400475 100001
PC 7fafe0a2981e 1
PC 7fafe0a2982f 1
PC 7fafe0a2985d 1
PC 7fafe0a29876 1
PC 7fafe0a29883 1
PC 7fafe0a298a7 1
PC 7fafe0a299d7 1
PC 7faff506d18d 1
PC 7fafe0a8293d 1
PC 7fafe0a829ee 1
PC 7fafe0a829f9 1
PC 7fafe0a82a54 1
PC 7fafe0a82a5d 1
PC 7fafe0a82a63 1
PC 7fafe0a82a70 1
PC 7faff506d1b2 1
PC 7faff506d27f 1
PC 7faff506d2b0 1
PC 7faff506d2b4 1
PC 7faff506d2b0 1
PC 7faff506d2b4 1
PC 7faff506d2b0 1
PC 7faff506d2b4 1
PC 7faff506d2b0 1
PC 7faff506d2b4 1
PC 7faff506d2b0 1
PC 7faff506d2b4 1
PC 7faff506d2b0 1
PC 7faff506d2b4 1
PC 7faff506d2b0 1
PC 7faff506d2b4 1
PC 7faff506d2d7 7
PC 7faff506d2e1 1
PC 7faff506d2e5 1
PC 7faff5079c51 1
PC 7faff5079c6e 7
PC 7faff5079cb1 1
PC 7faff5079d08 1
PC 7faff5079cf7 1
PC 7faff5079d08 1
PC 7faff507985f 1
PC 7faff5079867 1
PC 7faff5079875 1
PC 7faff5079875 1
PC 7faff5079882 2
PC 7faff5079cf7 1
PC 7faff5079d08 1
PC 7faff507985f 1
PC 7faff5079867 1
PC 7faff5079875 1
PC 7faff5079875 1
PC 7faff5079882 2
PC 7faff5079cf7 1
PC 7faff5079d08 1
PC 7faff507985f 1
PC 7faff5079867 1
PC 7faff5079875 1
PC 7faff5079875 1
PC 7faff5079875 1
PC 7faff5079882 3
PC 7faff5079cf7 1
PC 7faff5079d08 1
PC 7faff507985f 1
PC 7faff5079867 1
PC 7faff5079875 1
PC 7faff5079875 1
PC 7faff5079875 1
PC 7faff5079875 1
PC 7faff5079882 4
PC 7faff5079cf7 1
PC 7faff5079d08 1
PC 7faff5079cf7 1
PC 7faff5079d08 1
PC 7faff507985f 1
PC 7faff5079867 1
PC 7faff5079875 1
PC 7faff5079875 1
PC 7faff5079875 1
PC 7faff5079875 1
PC 7faff5079875 1
PC 7faff5079875 1
PC 7faff5079882 6
PC 7faff5079d21 7
PC 7faff508cf8b 1
PC 7faff508d017 1
PC 7faff5079d8b 1
PC 7fafe0a84319 1
PC 7fafe0a843a7 1
PC 7fafe0a8433e 1
PC 7fafe0a84347 1
PC 7faff506d32d 1
PC 7faff506d35c 1
PC 7faff506928b 1
PC 7faff50692a3 1
PC 7faff50692b4 1
PC 40041b 1
PC 7faff50692d9 1
PC 7faff50692e5 1
PC 7faff5080eec 1
PC 7faff506d34f 1
PC 7faff506d34f 1
PC 7faff506d35c 2
PC 7faff506928b 1
PC 7faff50692a3 1
PC 7faff50692b4 1
PC 7fafe0c1b8db 1
PC 7fafe0c1b8e9 1
PC 7fafe0a2926c 1
PC 7fafe0a2927c 1
PC 7fafe0a29294 1
PC 7fafe0a29433 1
PC 7fafe0a29449 1
PC 7fafe0a29456 1
PC 7fafe0a29433 1
PC 7fafe0a29449 1
PC 7fafe0a29456 1
PC 7fafe0a29433 1
PC 7fafe0d2c44c 1
PC 7fafe0d2c451 1
PC 7fafe0a29449 1
PC 7fafe0a29456 1
PC 7fafe0a29433 1
PC 7fafe0c322c5 1
PC 7fafe0cb0bef 1
PC 7fafe0cb0e02 1
PC 7fafe0cb0c0a 1
PC 7fafe0a69127 1
PC 7fafe0a691cb 1
PC 7fafe0a6915c 1
PC 7fafe0a76c76 1
PC 7fafe0a69170 1
PC 7fafe0a69183 1
PC 7fafe0a69187 1
PC 7fafe0cb0c24 1
PC 7fafe0cb0bef 1
PC 7fafe0cb0db5 1
PC 7fafe0cb0bef 1
PC 7fafe0cb0e02 1
PC 7fafe0cb0c0a 1
PC 7fafe0a69127 1
PC 7fafe0a691cb 1
PC 7fafe0a6915c 1
PC 7fafe0a76c76 1
PC 7fafe0a69170 1
PC 7fafe0a69183 1
PC 7fafe0a69187 1
PC 7fafe0cb0c24 1
PC 7fafe0cb0ded 1
PC 7fafe0cb0c0a 1
PC 7fafe0a69127 1
PC 7fafe0a691cb 1
PC 7fafe0a6915c 1
PC 7fafe0a76c76 1
PC 7fafe0a69170 1
PC 7fafe0a69183 1
PC 7fafe0a69187 1
PC 7fafe0cb0c24 1
PC 7fafe0cb0c3a 1
PC 7fafe0cb0c41 1
PC 7fafe0cb0c4f 1
PC 7fafe0cb0c6b 1
PC 7fafe0a69127 1
PC 7fafe0a691cb 1
PC 7fafe0a6915c 1
PC 7fafe0a76c76 1
PC 7fafe0a69170 1
PC 7fafe0a69183 1
PC 7fafe0a69187 1
PC 7fafe0cb0c76 1
PC 7fafe0cb0bef 1
PC 7fafe0cb0e02 1
PC 7fafe0cb0c0a 1
PC 7fafe0a69127 1
PC 7fafe0a691cb 1
PC 7fafe0a6915c 1
PC 7fafe0a76c76 1
PC 7fafe0a69170 1
PC 7fafe0a69183 1
PC 7fafe0a69187 1
PC 7fafe0cb0c24 1
PC 7fafe0cb3b2f 1
PC 7fafe0cb3d42 1
PC 7fafe0cb3b4a 1
PC 7fafe0a69127 1
PC 7fafe0a691cb 1
PC 7fafe0a6915c 1
PC 7fafe0a76c76 1
PC 7fafe0a69170 1
PC 7fafe0a69183 1
PC 7fafe0a69187 1
PC 7fafe0cb3b64 1
PC 7fafe0cb3b2f 1
PC 7fafe0cb3cf5 1
PC 7fafe0cb3b2f 1
PC 7fafe0cb3d42 1
PC 7fafe0cb3b4a 1
PC 7fafe0a69127 1
PC 7fafe0a691cb 1
PC 7fafe0a6915c 1
PC 7fafe0a76c76 1
PC 7fafe0a69170 1
PC 7fafe0a69183 1
PC 7fafe0a69187 1
PC 7fafe0cb3b64 1
PC 7fafe0cb3d2d 1
PC 7fafe0cb3b4a 1
PC 7fafe0a69127 1
PC 7fafe0a691cb 1
PC 7fafe0a6915c 1
PC 7fafe0a76c76 1
PC 7fafe0a69170 1
PC 7fafe0a69183 1
PC 7fafe0a69187 1
PC 7fafe0cb3b64 1
PC 7fafe0cb3b7a 1
PC 7fafe0cb3b81 1
PC 7fafe0cb3b8f 1
PC 7fafe0cb3bab 1
PC 7fafe0a69127 1
PC 7fafe0a691cb 1
PC 7fafe0a6915c 1
PC 7fafe0a76c76 1
PC 7fafe0a69170 1
PC 7fafe0a69183 1
PC 7fafe0a69187 1
PC 7fafe0cb3bb6 1
PC 7fafe0cb3b2f 1
PC 7fafe0cb3d42 1
PC 7fafe0cb3b4a 1
PC 7fafe0a69127 1
PC 7fafe0a691cb 1
PC 7fafe0a6915c 1
PC 7fafe0a76c76 1
PC 7fafe0a69170 1
PC 7fafe0a69183 1
PC 7fafe0a69187 1
PC 7fafe0cb3b64 1
PC 7fafe0a29449 1
PC 7fafe0a29456 1
PC 7fafe0a29463 4
PC 7fafe0a292d6 1
PC 7fafe0a292e2 1
PC 7fafe0a29329 1
PC 7fafe0a2932e 1
PC 7fafe0ae941e 1
PC 7fafe0ae954b 1
PC 7fafe0a29341 1
PC 7faff50692d9 1
PC 7faff50692e5 1
PC 7faff5080eec 1
PC 7faff506d34f 1
PC 7faff506d35c 1
PC 7faff506928b 1
PC 7faff50692a3 1
PC 7faff50692b4 1
PC 7fafe0f0b8ab 1
PC 7fafe0f0b8b9 1
PC 7fafe0a2926c 1
PC 7fafe0a2927c 1
PC 7fafe0a29294 1
PC 7fafe0a29384 5
PC 7fafe0a2938d 1
PC 7fafe0a29397 1
PC 7fafe0a29384 1
PC 7fafe0a2938d 1
PC 7fafe0a29397 1
PC 7fafe0a293a0 2
PC 7fafe0a293a8 1
PC 7fafe0a292e2 1
PC 7fafe0a29329 1
PC 7fafe0a2932e 1
PC 7fafe0ae941e 1
PC 7fafe0ae954b 1
PC 7fafe0a29341 1
PC 7faff50692d9 1
PC 7faff50692e5 1
PC 7faff5080eec 1
PC 7faff506d34f 1
PC 7faff506d35c 1
PC 7faff506928b 1
PC 7faff50692a3 1
PC 7faff50692b4 1
PC 7fafe1254b61 1
PC 7fafe1254b61 1
PC 7fafe1255d3b 1
PC 7fafe1255d49 1
PC 7fafe0a2926c 1
PC 7fafe0a2927c 1
PC 7fafe0a29294 1
PC 7fafe0a29384 1
PC 7fafe0a2938d 1
PC 7fafe0a29397 1
PC 7fafe0a29384 1
PC 7fafe0a2938d 1
PC 7fafe0a29397 1
PC 7fafe0a293a0 2
PC 7fafe0a293a8 1
PC 7fafe0a292e2 1
PC 7fafe0a29329 1
PC 7fafe0a2932e 1
PC 7fafe0ae941e 1
PC 7fafe0ae954b 1
PC 7fafe0a29341 1
PC 7faff50692d9 2
PC 7faff50692e5 1
PC 7faff5080eec 1
PC 7faff506d34f 1
PC 7faff506d35c 1
PC 7faff506928b 1
PC 7faff5080eec 1
PC 7faff506d34f 1
PC 7faff506d35c 1
PC 7faff506928b 1
PC 7faff5080eec 1
PC 7faff506d1df 1
PC 7faff506d1e5 1
PC 7faff506d1fc 1
PC 7faff506d205 1
PC 7fafe0a29902 1
PC 7fafe0a298a7 1
PC 7fafe0a298b1 1
PC 7fafe0a29883 1
PC 7fafe0a298a7 1
PC 7fafe0a298b1 1
PC 7fafe0a29883 1
PC 7fafe0a298a7 1
PC 7fafe0a298b1 1
PC 7fafe0a29883 1
PC 7fafe0a298a7 1
PC 7fafe0a298b1 1
PC 7fafe0a2994e 1
PC 7fafe0a7c3a9 1
PC 7fafe0a79655 1
PC 7fafe0a79763 1
PC 7fafe0a79780 1
PC 7fafe0a797ba 1
PC 7fafe0a797c8 1
PC 7fafe0a797cf 1
PC 7fafe0a797dd 1
PC 7fafe0a796fc 1
PC 7fafe0a7970f 1
PC 7fafe0a79717 1
PC 7fafe0a79752 1
PC 7fafe0a79763 1
PC 7fafe0a79780 1
PC 7fafe0a797ba 1
PC 7fafe0a797c8 1
PC 7fafe0a797cf 1
PC 7fafe0a797dd 1
PC 7fafe0a796fc 1
PC 7fafe0a7970f 1
PC 7fafe0a79717 1
PC 7fafe0a79752 1
PC 7fafe0a79763 1
PC 7fafe0a79780 1
PC 7fafe0a797ba 1
PC 7fafe0a797c8 1
PC 7fafe0a797cf 1
PC 7fafe0a797dd 1
PC 7fafe0a796fc 1
PC 7fafe0a7970f 1
PC 7fafe0a79717 1
PC 7fafe0a798b7 1
PC 7fafe0a798c1 1
PC 7fafe0a798ee 1
PC 7fafe0a7c3a9 1
PC 7fafe0a79dad 1
PC 7fafe0a79e83 1
PC 7fafe0a79ea0 1
PC 7fafe0a79e29 1
PC 7fafe0a79e3c 1
PC 7fafe0a79e44 1
PC 7fafe0a79e72 1
PC 7fafe0a79e83 1
PC 7fafe0a79ea0 1
PC 7fafe0a79e0c 1
PC 7fafe0a79e16 1
PC 7fafe0a79e29 1
PC 7fafe0a79e3c 1
PC 7fafe0a79e44 1
PC 7fafe0a79e72 1
PC 7fafe0a79e83 1
PC 7fafe0a79ea0 1
PC 7fafe0a79e0c 1
PC 7fafe0a79e16 1
PC 7fafe0a79e29 1
PC 7fafe0a79e3c 1
PC 7fafe0a79e44 1
PC 7fafe0a7a017 1
PC 7fafe0a7a021 1
PC 7fafe0a7a04e 1
*** Reached end of trace for Core: 0 Repeating trace: tracer/testcase/myTrace/test41-a-b.xz
PC 7fafe0a26e46 1
PC 7fafe0a10575 1
PC 400465 1
PC 400475 100001
PC 7fafe0a2981e 1
PC 7fafe0a2982f 1
PC 7fafe0a2985d 1
PC 7fafe0a29876 1
PC 7fafe0a29883 1
PC 7fafe0a298a7 1
PC 7fafe0a299d7 1
PC 7faff506d18d 1
PC 7fafe0a8293d 1
PC 7fafe0a829ee 1
PC 7fafe0a829f9 1
PC 7fafe0a82a54 1
PC 7fafe0a82a5d 1
PC 7fafe0a82a63 1
PC 7fafe0a82a70 1
PC 7faff506d1b2 1
PC 7faff506d27f 1
PC 7faff506d2b0 1
PC 7faff506d2b4 1
PC 7faff506d2b0 1
PC 7faff506d2b4 1
PC 7faff506d2b0 1
PC 7faff506d2b4 1
PC 7faff506d2b0 1
PC 7faff506d2b4 1
PC 7faff506d2b0 1
PC 7faff506d2b4 1
PC 7faff506d2b0 1
PC 7faff506d2b4 1
PC 7faff506d2b0 1
PC 7faff506d2b4 1
PC 7faff506d2d7 7
PC 7faff506d2e1 1
PC 7faff506d2e5 1
PC 7faff5079c51 1
PC 7faff5079c6e 7
PC 7faff5079cb1 1
PC 7faff5079d08 1
PC 7faff5079cf7 1
PC 7faff5079d08 1
PC 7faff507985f 1
PC 7faff5079867 1
PC 7faff5079875 1
PC 7faff5079875 1
PC 7faff5079882 2
PC 7faff5079cf7 1
PC 7faff5079d08 1
PC 7faff507985f 1
PC 7faff5079867 1
PC 7faff5079875 1
PC 7faff5079875 1
PC 7faff5079882 2
PC 7faff5079cf7 1
PC 7faff5079d08 1
PC 7faff507985f 1
PC 7faff5079867 1
PC 7faff5079875 1
PC 7faff5079875 1
PC 7faff5079875 1
PC 7faff5079882 3
PC 7faff5079cf7 1
PC 7faff5079d08 1
PC 7faff507985f 1
PC 7faff5079867 1
PC 7faff5079875 1
PC 7faff5079875 1
PC 7faff5079875 1
PC 7faff5079875 1
PC 7faff5079882 4
PC 7faff5079cf7 1
PC 7faff5079d08 1
PC 7faff5079cf7 1
PC 7faff5079d08 1
PC 7faff507985f 1
PC 7faff5079867 1
PC 7faff5079875 1
PC 7faff5079875 1
PC 7faff5079875 1
PC 7faff5079875 1
PC 7faff5079875 1
PC 7faff5079875 1
PC 7faff5079882 6
PC 7faff5079d21 7
PC 7faff508cf8b 1
PC 7faff508d017 1
PC 7faff5079d8b 1
PC 7fafe0a84319 1
PC 7fafe0a843a7 1
PC 7fafe0a8433e 1
PC 7fafe0a84347 1
PC 7faff506d32d 1
PC 7faff506d35c 1
PC 7faff506928b 1
PC 7faff50692a3 1
PC 7faff50692b4 1
PC 40041b 1
PC 7faff50692d9 1
PC 7faff50692e5 1
PC 7faff5080eec 1
PC 7faff506d34f 1
PC 7faff506d34f 1
PC 7faff506d35c 2
PC 7faff506928b 1
PC 7faff50692a3 1
PC 7faff50692b4 1
PC 7fafe0c1b8db 1
PC 7fafe0c1b8e9 1
PC 7fafe0a2926c 1
PC 7fafe0a2927c 1
PC 7fafe0a29294 1
PC 7fafe0a29433 1
PC 7fafe0a29449 1
PC 7fafe0a29456 1
PC 7fafe0a29433 1
PC 7fafe0a29449 1
PC 7fafe0a29456 1
PC 7fafe0a29433 1
PC 7fafe0d2c44c 1
PC 7fafe0d2c451 1
PC 7fafe0a29449 1
PC 7fafe0a29456 1
PC 7fafe0a29433 1
PC 7fafe0c322c5 1
PC 7fafe0cb0bef 1
PC 7fafe0cb0e02 1
PC 7fafe0cb0c0a 1
PC 7fafe0a69127 1
PC 7fafe0a691cb 1
PC 7fafe0a6915c 1
PC 7fafe0a76c76 1
PC 7fafe0a69170 1
PC 7fafe0a69183 1
PC 7fafe0a69187 1
PC 7fafe0cb0c24 1
PC 7fafe0cb0bef 1
PC 7fafe0cb0db5 1
PC 7fafe0cb0bef 1
PC 7fafe0cb0e02 1
PC 7fafe0cb0c0a 1
PC 7fafe0a69127 1
PC 7fafe0a691cb 1
PC 7fafe0a6915c 1
PC 7fafe0a76c76 1
PC 7fafe0a69170 1
PC 7fafe0a69183 1
PC 7fafe0a69187 1
PC 7fafe0cb0c24 1
PC 7fafe0cb0ded 1
PC 7fafe0cb0c0a 1
PC 7fafe0a69127 1
PC 7fafe0a691cb 1
PC 7fafe0a6915c 1
PC 7fafe0a76c76 1
PC 7fafe0a69170 1
PC 7fafe0a69183 1
PC 7fafe0a69187 1
PC 7fafe0cb0c24 1
PC 7fafe0cb0c3a 1
PC 7fafe0cb0c41 1
PC 7fafe0cb0c4f 1
PC 7fafe0cb0c6b 1
PC 7fafe0a69127 1
PC 7fafe0a691cb 1
PC 7fafe0a6915c 1
PC 7fafe0a76c76 1
PC 7fafe0a69170 1
PC 7fafe0a69183 1
PC 7fafe0a69187 1
PC 7fafe0cb0c76 1
PC 7fafe0cb0bef 1
PC 7fafe0cb0e02 1
PC 7fafe0cb0c0a 1
PC 7fafe0a69127 1
PC 7fafe0a691cb 1
PC 7fafe0a6915c 1
PC 7fafe0a76c76 1
PC 7fafe0a69170 1
PC 7fafe0a69183 1
PC 7fafe0a69187 1
PC 7fafe0cb0c24 1
PC 7fafe0cb3b2f 1
PC 7fafe0cb3d42 1
PC 7fafe0cb3b4a 1
PC 7fafe0a69127 1
PC 7fafe0a691cb 1
PC 7fafe0a6915c 1
PC 7fafe0a76c76 1
PC 7fafe0a69170 1
PC 7fafe0a69183 1
PC 7fafe0a69187 1
PC 7fafe0cb3b64 1
PC 7fafe0cb3b2f 1
PC 7fafe0cb3cf5 1
PC 7fafe0cb3b2f 1
PC 7fafe0cb3d42 1
PC 7fafe0cb3b4a 1
PC 7fafe0a69127 1
PC 7fafe0a691cb 1
PC 7fafe0a6915c 1
PC 7fafe0a76c76 1
PC 7fafe0a69170 1
PC 7fafe0a69183 1
PC 7fafe0a69187 1
PC 7fafe0cb3b64 1
PC 7fafe0cb3d2d 1
PC 7fafe0cb3b4a 1
PC 7fafe0a69127 1
PC 7fafe0a691cb 1
PC 7fafe0a6915c 1
PC 7fafe0a76c76 1
PC 7fafe0a69170 1
PC 7fafe0a69183 1
PC 7fafe0a69187 1
PC 7fafe0cb3b64 1
PC 7fafe0cb3b7a 1
PC 7fafe0cb3b81 1
PC 7fafe0cb3b8f 1
PC 7fafe0cb3bab 1
PC 7fafe0a69127 1
PC 7fafe0a691cb 1
PC 7fafe0a6915c 1
PC 7fafe0a76c76 1
PC 7fafe0a69170 1
PC 7fafe0a69183 1
PC 7fafe0a69187 1
PC 7fafe0cb3bb6 1
PC 7fafe0cb3b2f 1
PC 7fafe0cb3d42 1
PC 7fafe0cb3b4a 1
PC 7fafe0a69127 1
PC 7fafe0a691cb 1
PC 7fafe0a6915c 1
PC 7fafe0a76c76 1
PC 7fafe0a69170 1
PC 7fafe0a69183 1
PC 7fafe0a69187 1
PC 7fafe0cb3b64 1
PC 7fafe0a29449 1
PC 7fafe0a29456 1
PC 7fafe0a29463 4
PC 7fafe0a292d6 1
PC 7fafe0a292e2 1
PC 7fafe0a29329 1
PC 7fafe0a2932e 1
PC 7fafe0ae941e 1
PC 7fafe0ae954b 1
PC 7fafe0a29341 1
PC 7faff50692d9 1
PC 7faff50692e5 1
PC 7faff5080eec 1
PC 7faff506d34f 1
PC 7faff506d35c 1
PC 7faff506928b 1
PC 7faff50692a3 1
PC 7faff50692b4 1
PC 7fafe0f0b8ab 1
PC 7fafe0f0b8b9 1
PC 7fafe0a2926c 1
PC 7fafe0a2927c 1
PC 7fafe0a29294 1
PC 7fafe0a29384 5
PC 7fafe0a2938d 1
PC 7fafe0a29397 1
PC 7fafe0a29384 1
PC 7fafe0a2938d 1
PC 7fafe0a29397 1
PC 7fafe0a293a0 2
PC 7fafe0a293a8 1
PC 7fafe0a292e2 1
PC 7fafe0a29329 1
PC 7fafe0a2932e 1
PC 7fafe0ae941e 1
PC 7fafe0ae954b 1
PC 7fafe0a29341 1
PC 7faff50692d9 1
PC 7faff50692e5 1
PC 7faff5080eec 1
PC 7faff506d34f 1
PC 7faff506d35c 1
PC 7faff506928b 1
PC 7faff50692a3 1
PC 7faff50692b4 1
PC 7fafe1254b61 1
PC 7fafe1254b61 1
PC 7fafe1255d3b 1
PC 7fafe1255d49 1
PC 7fafe0a2926c 1
PC 7fafe0a2927c 1
PC 7fafe0a29294 1
PC 7fafe0a29384 1
PC 7fafe0a2938d 1
PC 7fafe0a29397 1
PC 7fafe0a29384 1
PC 7fafe0a2938d 1
PC 7fafe0a29397 1
PC 7fafe0a293a0 2
PC 7fafe0a293a8 1
PC 7fafe0a292e2 1
PC 7fafe0a29329 1
PC 7fafe0a2932e 1
PC 7fafe0ae941e 1
PC 7fafe0ae954b 1
PC 7fafe0a29341 1
PC 7faff50692d9 2
PC 7faff50692e5 1
PC 7faff5080eec 1
PC 7faff506d34f 1
PC 7faff506d35c 1
PC 7faff506928b 1
PC 7faff5080eec 1
PC 7faff506d34f 1
PC 7faff506d35c 1
PC 7faff506928b 1
PC 7faff5080eec 1
PC 7faff506d1df 1
PC 7faff506d1e5 1
PC 7faff506d1fc 1
PC 7faff506d205 1
PC 7fafe0a29902 1
PC 7fafe0a298a7 1
PC 7fafe0a298b1 1
PC 7fafe0a29883 1
PC 7fafe0a298a7 1
PC 7fafe0a298b1 1
PC 7fafe0a29883 1
PC 7fafe0a298a7 1
PC 7fafe0a298b1 1
PC 7fafe0a29883 1
PC 7fafe0a298a7 1
PC 7fafe0a298b1 1
PC 7fafe0a2994e 1
PC 7fafe0a7c3a9 1
PC 7fafe0a79655 1
PC 7fafe0a79763 1
PC 7fafe0a79780 1
PC 7fafe0a797ba 1
PC 7fafe0a797c8 1
PC 7fafe0a797cf 1
PC 7fafe0a797dd 1
PC 7fafe0a796fc 1
PC 7fafe0a7970f 1
PC 7fafe0a79717 1
PC 7fafe0a79752 1
PC 7fafe0a79763 1
PC 7fafe0a79780 1
PC 7fafe0a797ba 1
PC 7fafe0a797c8 1
PC 7fafe0a797cf 1
PC 7fafe0a797dd 1
PC 7fafe0a796fc 1
PC 7fafe0a7970f 1
PC 7fafe0a79717 1
PC 7fafe0a79752 1
PC 7fafe0a79763 1
PC 7fafe0a79780 1
PC 7fafe0a797ba 1
PC 7fafe0a797c8 1
PC 7fafe0a797cf 1
PC 7fafe0a797dd 1
PC 7fafe0a796fc 1
PC 7fafe0a7970f 1
PC 7fafe0a79717 1
PC 7fafe0a798b7 1
PC 7fafe0a798c1 1
PC 7fafe0a798ee 1
PC 7fafe0a7c3a9 1
PC 7fafe0a79dad 1
PC 7fafe0a79e83 1
PC 7fafe0a79ea0 1
PC 7fafe0a79e29 1
PC 7fafe0a79e3c 1
PC 7fafe0a79e44 1
PC 7fafe0a79e72 1
PC 7fafe0a79e83 1
PC 7fafe0a79ea0 1
PC 7fafe0a79e0c 1
PC 7fafe0a79e16 1
PC 7fafe0a79e29 1
PC 7fafe0a79e3c 1
PC 7fafe0a79e44 1
PC 7fafe0a79e72 1
PC 7fafe0a79e83 1
PC 7fafe0a79ea0 1
PC 7fafe0a79e0c 1
PC 7fafe0a79e16 1
PC 7fafe0a79e29 1
PC 7fafe0a79e3c 1
PC 7fafe0a79e44 1
PC 7fafe0a7a017 1
PC 7fafe0a7a021 1
PC 7fafe0a7a04e 1
*** Reached end of trace for Core: 0 Repeating trace: tracer/testcase/myTrace/test41-a-b.xz
PC 7fafe0a26e46 1
PC 7fafe0a10575 1
PC 400465 1
PC 400475 100001
PC 7fafe0a2981e 1
PC 7fafe0a2982f 1
PC 7fafe0a2985d 1
PC 7fafe0a29876 1
PC 7fafe0a29883 1
PC 7fafe0a298a7 1
PC 7fafe0a299d7 1
PC 7faff506d18d 1
PC 7fafe0a8293d 1
PC 7fafe0a829ee 1
PC 7fafe0a829f9 1
PC 7fafe0a82a54 1
PC 7fafe0a82a5d 1
PC 7fafe0a82a63 1
PC 7fafe0a82a70 1
PC 7faff506d1b2 1
PC 7faff506d27f 1
PC 7faff506d2b0 1
PC 7faff506d2b4 1
PC 7faff506d2b0 1
PC 7faff506d2b4 1
PC 7faff506d2b0 1
PC 7faff506d2b4 1
PC 7faff506d2b0 1
PC 7faff506d2b4 1
PC 7faff506d2b0 1
PC 7faff506d2b4 1
PC 7faff506d2b0 1
PC 7faff506d2b4 1
PC 7faff506d2b0 1
PC 7faff506d2b4 1
PC 7faff506d2d7 7
PC 7faff506d2e1 1
PC 7faff506d2e5 1
PC 7faff5079c51 1
PC 7faff5079c6e 7
PC 7faff5079cb1 1
PC 7faff5079d08 1
PC 7faff5079cf7 1
PC 7faff5079d08 1
PC 7faff507985f 1
PC 7faff5079867 1
PC 7faff5079875 1
PC 7faff5079875 1
PC 7faff5079882 2
PC 7faff5079cf7 1
PC 7faff5079d08 1
PC 7faff507985f 1
PC 7faff5079867 1
PC 7faff5079875 1
PC 7faff5079875 1
PC 7faff5079882 2
PC 7faff5079cf7 1
PC 7faff5079d08 1
PC 7faff507985f 1
PC 7faff5079867 1
PC 7faff5079875 1
PC 7faff5079875 1
PC 7faff5079875 1
PC 7faff5079882 3
PC 7faff5079cf7 1
PC 7faff5079d08 1
PC 7faff507985f 1
PC 7faff5079867 1
PC 7faff5079875 1
PC 7faff5079875 1
PC 7faff5079875 1
PC 7faff5079875 1
PC 7faff5079882 4
PC 7faff5079cf7 1
PC 7faff5079d08 1
PC 7faff5079cf7 1
PC 7faff5079d08 1
PC 7faff507985f 1
PC 7faff5079867 1
PC 7faff5079875 1
PC 7faff5079875 1
PC 7faff5079875 1
PC 7faff5079875 1
PC 7faff5079875 1
PC 7faff5079875 1
PC 7faff5079882 6
PC 7faff5079d21 7
PC 7faff508cf8b 1
PC 7faff508d017 1
PC 7faff5079d8b 1
PC 7fafe0a84319 1
PC 7fafe0a843a7 1
PC 7fafe0a8433e 1
PC 7fafe0a84347 1
PC 7faff506d32d 1
PC 7faff506d35c 1
PC 7faff506928b 1
PC 7faff50692a3 1
PC 7faff50692b4 1
PC 40041b 1
PC 7faff50692d9 1
PC 7faff50692e5 1
PC 7faff5080eec 1
PC 7faff506d34f 1
PC 7faff506d34f 1
PC 7faff506d35c 2
PC 7faff506928b 1
PC 7faff50692a3 1
PC 7faff50692b4 1
PC 7fafe0c1b8db 1
PC 7fafe0c1b8e9 1
PC 7fafe0a2926c 1
PC 7fafe0a2927c 1
PC 7fafe0a29294 1
PC 7fafe0a29433 1
PC 7fafe0a29449 1
PC 7fafe0a29456 1
PC 7fafe0a29433 1
PC 7fafe0a29449 1
PC 7fafe0a29456 1
PC 7fafe0a29433 1
PC 7fafe0d2c44c 1
PC 7fafe0d2c451 1
PC 7fafe0a29449 1
PC 7fafe0a29456 1
PC 7fafe0a29433 1
PC 7fafe0c322c5 1
PC 7fafe0cb0bef 1
PC 7fafe0cb0e02 1
PC 7fafe0cb0c0a 1
PC 7fafe0a69127 1
PC 7fafe0a691cb 1
PC 7fafe0a6915c 1
PC 7fafe0a76c76 1
PC 7fafe0a69170 1
PC 7fafe0a69183 1
PC 7fafe0a69187 1
PC 7fafe0cb0c24 1
PC 7fafe0cb0bef 1
PC 7fafe0cb0db5 1
PC 7fafe0cb0bef 1
PC 7fafe0cb0e02 1
PC 7fafe0cb0c0a 1
PC 7fafe0a69127 1
PC 7fafe0a691cb 1
PC 7fafe0a6915c 1
PC 7fafe0a76c76 1
PC 7fafe0a69170 1
PC 7fafe0a69183 1
PC 7fafe0a69187 1
PC 7fafe0cb0c24 1
PC 7fafe0cb0ded 1
PC 7fafe0cb0c0a 1
PC 7fafe0a69127 1
PC 7fafe0a691cb 1
PC 7fafe0a6915c 1
PC 7fafe0a76c76 1
PC 7fafe0a69170 1
PC 7fafe0a69183 1
PC 7fafe0a69187 1
PC 7fafe0cb0c24 1
PC 7fafe0cb0c3a 1
PC 7fafe0cb0c41 1
PC 7fafe0cb0c4f 1
PC 7fafe0cb0c6b 1
PC 7fafe0a69127 1
PC 7fafe0a691cb 1
PC 7fafe0a6915c 1
PC 7fafe0a76c76 1
PC 7fafe0a69170 1
PC 7fafe0a69183 1
PC 7fafe0a69187 1
PC 7fafe0cb0c76 1
PC 7fafe0cb0bef 1
PC 7fafe0cb0e02 1
PC 7fafe0cb0c0a 1
PC 7fafe0a69127 1
PC 7fafe0a691cb 1
PC 7fafe0a6915c 1
PC 7fafe0a76c76 1
PC 7fafe0a69170 1
PC 7fafe0a69183 1
PC 7fafe0a69187 1
PC 7fafe0cb0c24 1
PC 7fafe0cb3b2f 1
PC 7fafe0cb3d42 1
PC 7fafe0cb3b4a 1
PC 7fafe0a69127 1
PC 7fafe0a691cb 1
PC 7fafe0a6915c 1
PC 7fafe0a76c76 1
PC 7fafe0a69170 1
PC 7fafe0a69183 1
PC 7fafe0a69187 1
PC 7fafe0cb3b64 1
PC 7fafe0cb3b2f 1
PC 7fafe0cb3cf5 1
PC 7fafe0cb3b2f 1
PC 7fafe0cb3d42 1
PC 7fafe0cb3b4a 1
PC 7fafe0a69127 1
PC 7fafe0a691cb 1
PC 7fafe0a6915c 1
PC 7fafe0a76c76 1
PC 7fafe0a69170 1
PC 7fafe0a69183 1
PC 7fafe0a69187 1
PC 7fafe0cb3b64 1
PC 7fafe0cb3d2d 1
PC 7fafe0cb3b4a 1
PC 7fafe0a69127 1
PC 7fafe0a691cb 1
PC 7fafe0a6915c 1
PC 7fafe0a76c76 1
PC 7fafe0a69170 1
PC 7fafe0a69183 1
PC 7fafe0a69187 1
PC 7fafe0cb3b64 1
PC 7fafe0cb3b7a 1
PC 7fafe0cb3b81 1
PC 7fafe0cb3b8f 1
PC 7fafe0cb3bab 1
PC 7fafe0a69127 1
PC 7fafe0a691cb 1
PC 7fafe0a6915c 1
PC 7fafe0a76c76 1
PC 7fafe0a69170 1
PC 7fafe0a69183 1
PC 7fafe0a69187 1
PC 7fafe0cb3bb6 1
PC 7fafe0cb3b2f 1
PC 7fafe0cb3d42 1
PC 7fafe0cb3b4a 1
PC 7fafe0a69127 1
PC 7fafe0a691cb 1
PC 7fafe0a6915c 1
PC 7fafe0a76c76 1
PC 7fafe0a69170 1
PC 7fafe0a69183 1
PC 7fafe0a69187 1
PC 7fafe0cb3b64 1
PC 7fafe0a29449 1
PC 7fafe0a29456 1
PC 7fafe0a29463 4
PC 7fafe0a292d6 1
PC 7fafe0a292e2 1
PC 7fafe0a29329 1
PC 7fafe0a2932e 1
PC 7fafe0ae941e 1
PC 7fafe0ae954b 1
PC 7fafe0a29341 1
PC 7faff50692d9 1
PC 7faff50692e5 1
PC 7faff5080eec 1
PC 7faff506d34f 1
PC 7faff506d35c 1
PC 7faff506928b 1
PC 7faff50692a3 1
PC 7faff50692b4 1
PC 7fafe0f0b8ab 1
PC 7fafe0f0b8b9 1
PC 7fafe0a2926c 1
PC 7fafe0a2927c 1
PC 7fafe0a29294 1
PC 7fafe0a29384 5
PC 7fafe0a2938d 1
PC 7fafe0a29397 1
PC 7fafe0a29384 1
PC 7fafe0a2938d 1
PC 7fafe0a29397 1
PC 7fafe0a293a0 2
PC 7fafe0a293a8 1
PC 7fafe0a292e2 1
PC 7fafe0a29329 1
PC 7fafe0a2932e 1
PC 7fafe0ae941e 1
PC 7fafe0ae954b 1
PC 7fafe0a29341 1
PC 7faff50692d9 1
PC 7faff50692e5 1
PC 7faff5080eec 1
PC 7faff506d34f 1
PC 7faff506d35c 1
PC 7faff506928b 1
PC 7faff50692a3 1
PC 7faff50692b4 1
PC 7fafe1254b61 1
PC 7fafe1254b61 1
PC 7fafe1255d3b 1
PC 7fafe1255d49 1
PC 7fafe0a2926c 1
PC 7fafe0a2927c 1
PC 7fafe0a29294 1
PC 7fafe0a29384 1
PC 7fafe0a2938d 1
PC 7fafe0a29397 1
PC 7fafe0a29384 1
PC 7fafe0a2938d 1
PC 7fafe0a29397 1
PC 7fafe0a293a0 2
PC 7fafe0a293a8 1
PC 7fafe0a292e2 1
PC 7fafe0a29329 1
PC 7fafe0a2932e 1
PC 7fafe0ae941e 1
PC 7fafe0ae954b 1
PC 7fafe0a29341 1
PC 7faff50692d9 2
PC 7faff50692e5 1
PC 7faff5080eec 1
PC 7faff506d34f 1
PC 7faff506d35c 1
PC 7faff506928b 1
PC 7faff5080eec 1
PC 7faff506d34f 1
PC 7faff506d35c 1
PC 7faff506928b 1
PC 7faff5080eec 1
PC 7faff506d1df 1
PC 7faff506d1e5 1
PC 7faff506d1fc 1
PC 7faff506d205 1
PC 7fafe0a29902 1
PC 7fafe0a298a7 1
PC 7fafe0a298b1 1
PC 7fafe0a29883 1
PC 7fafe0a298a7 1
PC 7fafe0a298b1 1
PC 7fafe0a29883 1
PC 7fafe0a298a7 1
PC 7fafe0a298b1 1
PC 7fafe0a29883 1
PC 7fafe0a298a7 1
PC 7fafe0a298b1 1
PC 7fafe0a2994e 1
PC 7fafe0a7c3a9 1
PC 7fafe0a79655 1
PC 7fafe0a79763 1
PC 7fafe0a79780 1
PC 7fafe0a797ba 1
PC 7fafe0a797c8 1
PC 7fafe0a797cf 1
PC 7fafe0a797dd 1
PC 7fafe0a796fc 1
PC 7fafe0a7970f 1
PC 7fafe0a79717 1
PC 7fafe0a79752 1
PC 7fafe0a79763 1
PC 7fafe0a79780 1
PC 7fafe0a797ba 1
PC 7fafe0a797c8 1
PC 7fafe0a797cf 1
PC 7fafe0a797dd 1
PC 7fafe0a796fc 1
PC 7fafe0a7970f 1
PC 7fafe0a79717 1
PC 7fafe0a79752 1
PC 7fafe0a79763 1
PC 7fafe0a79780 1
PC 7fafe0a797ba 1
PC 7fafe0a797c8 1
PC 7fafe0a797cf 1
PC 7fafe0a797dd 1
PC 7fafe0a796fc 1
PC 7fafe0a7970f 1
PC 7fafe0a79717 1
PC 7fafe0a798b7 1
PC 7fafe0a798c1 1
PC 7fafe0a798ee 1
PC 7fafe0a7c3a9 1
PC 7fafe0a79dad 1
PC 7fafe0a79e83 1
PC 7fafe0a79ea0 1
PC 7fafe0a79e29 1
PC 7fafe0a79e3c 1
PC 7fafe0a79e44 1
PC 7fafe0a79e72 1
PC 7fafe0a79e83 1
PC 7fafe0a79ea0 1
PC 7fafe0a79e0c 1
PC 7fafe0a79e16 1
PC 7fafe0a79e29 1
PC 7fafe0a79e3c 1
PC 7fafe0a79e44 1
PC 7fafe0a79e72 1
PC 7fafe0a79e83 1
PC 7fafe0a79ea0 1
PC 7fafe0a79e0c 1
PC 7fafe0a79e16 1
PC 7fafe0a79e29 1
PC 7fafe0a79e3c 1
PC 7fafe0a79e44 1
PC 7fafe0a7a017 1
PC 7fafe0a7a021 1
PC 7fafe0a7a04e 1
*** Reached end of trace for Core: 0 Repeating trace: tracer/testcase/myTrace/test41-a-b.xz
PC 7fafe0a26e46 1
PC 7fafe0a10575 1
PC 400465 1
PC 400475 100001
PC 7fafe0a2981e 1
PC 7fafe0a2982f 1
PC 7fafe0a2985d 1
PC 7fafe0a29876 1
PC 7fafe0a29883 1
PC 7fafe0a298a7 1
PC 7fafe0a299d7 1
PC 7faff506d18d 1
PC 7fafe0a8293d 1
PC 7fafe0a829ee 1
PC 7fafe0a829f9 1
PC 7fafe0a82a54 1
PC 7fafe0a82a5d 1
PC 7fafe0a82a63 1
PC 7fafe0a82a70 1
PC 7faff506d1b2 1
PC 7faff506d27f 1
PC 7faff506d2b0 1
PC 7faff506d2b4 1
PC 7faff506d2b0 1
PC 7faff506d2b4 1
PC 7faff506d2b0 1
PC 7faff506d2b4 1
PC 7faff506d2b0 1
PC 7faff506d2b4 1
PC 7faff506d2b0 1
PC 7faff506d2b4 1
PC 7faff506d2b0 1
PC 7faff506d2b4 1
PC 7faff506d2b0 1
PC 7faff506d2b4 1
PC 7faff506d2d7 7
PC 7faff506d2e1 1
PC 7faff506d2e5 1
PC 7faff5079c51 1
PC 7faff5079c6e 7
PC 7faff5079cb1 1
PC 7faff5079d08 1
PC 7faff5079cf7 1
PC 7faff5079d08 1
PC 7faff507985f 1
PC 7faff5079867 1
PC 7faff5079875 1
PC 7faff5079875 1
PC 7faff5079882 2
PC 7faff5079cf7 1
PC 7faff5079d08 1
PC 7faff507985f 1
PC 7faff5079867 1
PC 7faff5079875 1
PC 7faff5079875 1
PC 7faff5079882 2
PC 7faff5079cf7 1
PC 7faff5079d08 1
PC 7faff507985f 1
PC 7faff5079867 1
PC 7faff5079875 1
PC 7faff5079875 1
PC 7faff5079875 1
PC 7faff5079882 3
PC 7faff5079cf7 1
PC 7faff5079d08 1
PC 7faff507985f 1
PC 7faff5079867 1
PC 7faff5079875 1
PC 7faff5079875 1
PC 7faff5079875 1
PC 7faff5079875 1
PC 7faff5079882 4
PC 7faff5079cf7 1
PC 7faff5079d08 1
PC 7faff5079cf7 1
PC 7faff5079d08 1
PC 7faff507985f 1
PC 7faff5079867 1
PC 7faff5079875 1
PC 7faff5079875 1
PC 7faff5079875 1
PC 7faff5079875 1
PC 7faff5079875 1
PC 7faff5079875 1
PC 7faff5079882 6
PC 7faff5079d21 7
PC 7faff508cf8b 1
PC 7faff508d017 1
PC 7faff5079d8b 1
PC 7fafe0a84319 1
PC 7fafe0a843a7 1
PC 7fafe0a8433e 1
PC 7fafe0a84347 1
PC 7faff506d32d 1
PC 7faff506d35c 1
PC 7faff506928b 1
PC 7faff50692a3 1
PC 7faff50692b4 1
PC 40041b 1
PC 7faff50692d9 1
PC 7faff50692e5 1
PC 7faff5080eec 1
PC 7faff506d34f 1
PC 7faff506d34f 1
PC 7faff506d35c 2
PC 7faff506928b 1
PC 7faff50692a3 1
PC 7faff50692b4 1
PC 7fafe0c1b8db 1
PC 7fafe0c1b8e9 1
PC 7fafe0a2926c 1
PC 7fafe0a2927c 1
PC 7fafe0a29294 1
PC 7fafe0a29433 1
PC 7fafe0a29449 1
PC 7fafe0a29456 1
PC 7fafe0a29433 1
PC 7fafe0a29449 1
PC 7fafe0a29456 1
PC 7fafe0a29433 1
PC 7fafe0d2c44c 1
PC 7fafe0d2c451 1
PC 7fafe0a29449 1
PC 7fafe0a29456 1
PC 7fafe0a29433 1
PC 7fafe0c322c5 1
PC 7fafe0cb0bef 1
PC 7fafe0cb0e02 1
PC 7fafe0cb0c0a 1
PC 7fafe0a69127 1
PC 7fafe0a691cb 1
PC 7fafe0a6915c 1
PC 7fafe0a76c76 1
PC 7fafe0a69170 1
PC 7fafe0a69183 1
PC 7fafe0a69187 1
PC 7fafe0cb0c24 1
PC 7fafe0cb0bef 1
PC 7fafe0cb0db5 1
PC 7fafe0cb0bef 1
PC 7fafe0cb0e02 1
PC 7fafe0cb0c0a 1
PC 7fafe0a69127 1
PC 7fafe0a691cb 1
PC 7fafe0a6915c 1
PC 7fafe0a76c76 1
PC 7fafe0a69170 1
PC 7fafe0a69183 1
PC 7fafe0a69187 1
PC 7fafe0cb0c24 1
PC 7fafe0cb0ded 1
PC 7fafe0cb0c0a 1
PC 7fafe0a69127 1
PC 7fafe0a691cb 1
PC 7fafe0a6915c 1
PC 7fafe0a76c76 1
PC 7fafe0a69170 1
PC 7fafe0a69183 1
PC 7fafe0a69187 1
PC 7fafe0cb0c24 1
PC 7fafe0cb0c3a 1
PC 7fafe0cb0c41 1
PC 7fafe0cb0c4f 1
PC 7fafe0cb0c6b 1
PC 7fafe0a69127 1
PC 7fafe0a691cb 1
PC 7fafe0a6915c 1
PC 7fafe0a76c76 1
PC 7fafe0a69170 1
PC 7fafe0a69183 1
PC 7fafe0a69187 1
PC 7fafe0cb0c76 1
PC 7fafe0cb0bef 1
PC 7fafe0cb0e02 1
PC 7fafe0cb0c0a 1
PC 7fafe0a69127 1
PC 7fafe0a691cb 1
PC 7fafe0a6915c 1
PC 7fafe0a76c76 1
PC 7fafe0a69170 1
PC 7fafe0a69183 1
PC 7fafe0a69187 1
PC 7fafe0cb0c24 1
PC 7fafe0cb3b2f 1
PC 7fafe0cb3d42 1
PC 7fafe0cb3b4a 1
PC 7fafe0a69127 1
PC 7fafe0a691cb 1
PC 7fafe0a6915c 1
PC 7fafe0a76c76 1
PC 7fafe0a69170 1
PC 7fafe0a69183 1
PC 7fafe0a69187 1
PC 7fafe0cb3b64 1
PC 7fafe0cb3b2f 1
PC 7fafe0cb3cf5 1
PC 7fafe0cb3b2f 1
PC 7fafe0cb3d42 1
PC 7fafe0cb3b4a 1
PC 7fafe0a69127 1
PC 7fafe0a691cb 1
PC 7fafe0a6915c 1
PC 7fafe0a76c76 1
PC 7fafe0a69170 1
PC 7fafe0a69183 1
PC 7fafe0a69187 1
PC 7fafe0cb3b64 1
PC 7fafe0cb3d2d 1
PC 7fafe0cb3b4a 1
PC 7fafe0a69127 1
PC 7fafe0a691cb 1
PC 7fafe0a6915c 1
PC 7fafe0a76c76 1
PC 7fafe0a69170 1
PC 7fafe0a69183 1
PC 7fafe0a69187 1
PC 7fafe0cb3b64 1
PC 7fafe0cb3b7a 1
PC 7fafe0cb3b81 1
PC 7fafe0cb3b8f 1
PC 7fafe0cb3bab 1
PC 7fafe0a69127 1
PC 7fafe0a691cb 1
PC 7fafe0a6915c 1
PC 7fafe0a76c76 1
PC 7fafe0a69170 1
PC 7fafe0a69183 1
PC 7fafe0a69187 1
PC 7fafe0cb3bb6 1
PC 7fafe0cb3b2f 1
PC 7fafe0cb3d42 1
PC 7fafe0cb3b4a 1
PC 7fafe0a69127 1
PC 7fafe0a691cb 1
PC 7fafe0a6915c 1
PC 7fafe0a76c76 1
PC 7fafe0a69170 1
PC 7fafe0a69183 1
PC 7fafe0a69187 1
PC 7fafe0cb3b64 1
PC 7fafe0a29449 1
PC 7fafe0a29456 1
PC 7fafe0a29463 4
PC 7fafe0a292d6 1
PC 7fafe0a292e2 1
PC 7fafe0a29329 1
PC 7fafe0a2932e 1
PC 7fafe0ae941e 1
PC 7fafe0ae954b 1
PC 7fafe0a29341 1
PC 7faff50692d9 1
PC 7faff50692e5 1
PC 7faff5080eec 1
PC 7faff506d34f 1
PC 7faff506d35c 1
PC 7faff506928b 1
PC 7faff50692a3 1
PC 7faff50692b4 1
PC 7fafe0f0b8ab 1
PC 7fafe0f0b8b9 1
PC 7fafe0a2926c 1
PC 7fafe0a2927c 1
PC 7fafe0a29294 1
PC 7fafe0a29384 5
PC 7fafe0a2938d 1
PC 7fafe0a29397 1
PC 7fafe0a29384 1
PC 7fafe0a2938d 1
PC 7fafe0a29397 1
PC 7fafe0a293a0 2
PC 7fafe0a293a8 1
PC 7fafe0a292e2 1
PC 7fafe0a29329 1
PC 7fafe0a2932e 1
PC 7fafe0ae941e 1
PC 7fafe0ae954b 1
PC 7fafe0a29341 1
PC 7faff50692d9 1
PC 7faff50692e5 1
PC 7faff5080eec 1
PC 7faff506d34f 1
PC 7faff506d35c 1
PC 7faff506928b 1
PC 7faff50692a3 1
PC 7faff50692b4 1
PC 7fafe1254b61 1
PC 7fafe1254b61 1
PC 7fafe1255d3b 1
PC 7fafe1255d49 1
PC 7fafe0a2926c 1
PC 7fafe0a2927c 1
PC 7fafe0a29294 1
PC 7fafe0a29384 1
PC 7fafe0a2938d 1
PC 7fafe0a29397 1
PC 7fafe0a29384 1
PC 7fafe0a2938d 1
PC 7fafe0a29397 1
PC 7fafe0a293a0 2
PC 7fafe0a293a8 1
PC 7fafe0a292e2 1
PC 7fafe0a29329 1
PC 7fafe0a2932e 1
PC 7fafe0ae941e 1
PC 7fafe0ae954b 1
PC 7fafe0a29341 1
PC 7faff50692d9 2
PC 7faff50692e5 1
PC 7faff5080eec 1
PC 7faff506d34f 1
PC 7faff506d35c 1
PC 7faff506928b 1
PC 7faff5080eec 1
PC 7faff506d34f 1
PC 7faff506d35c 1
PC 7faff506928b 1
PC 7faff5080eec 1
PC 7faff506d1df 1
PC 7faff506d1e5 1
PC 7faff506d1fc 1
PC 7faff506d205 1
PC 7fafe0a29902 1
PC 7fafe0a298a7 1
PC 7fafe0a298b1 1
PC 7fafe0a29883 1
PC 7fafe0a298a7 1
PC 7fafe0a298b1 1
PC 7fafe0a29883 1
PC 7fafe0a298a7 1
PC 7fafe0a298b1 1
PC 7fafe0a29883 1
PC 7fafe0a298a7 1
PC 7fafe0a298b1 1
PC 7fafe0a2994e 1
PC 7fafe0a7c3a9 1
PC 7fafe0a79655 1
PC 7fafe0a79763 1
PC 7fafe0a79780 1
PC 7fafe0a797ba 1
PC 7fafe0a797c8 1
PC 7fafe0a797cf 1
PC 7fafe0a797dd 1
PC 7fafe0a796fc 1
PC 7fafe0a7970f 1
PC 7fafe0a79717 1
PC 7fafe0a79752 1
PC 7fafe0a79763 1
PC 7fafe0a79780 1
PC 7fafe0a797ba 1
PC 7fafe0a797c8 1
PC 7fafe0a797cf 1
PC 7fafe0a797dd 1
PC 7fafe0a796fc 1
PC 7fafe0a7970f 1
PC 7fafe0a79717 1
PC 7fafe0a79752 1
PC 7fafe0a79763 1
PC 7fafe0a79780 1
PC 7fafe0a797ba 1
PC 7fafe0a797c8 1
PC 7fafe0a797cf 1
PC 7fafe0a797dd 1
PC 7fafe0a796fc 1
PC 7fafe0a7970f 1
PC 7fafe0a79717 1
PC 7fafe0a798b7 1
PC 7fafe0a798c1 1
PC 7fafe0a798ee 1
PC 7fafe0a7c3a9 1
PC 7fafe0a79dad 1
PC 7fafe0a79e83 1
PC 7fafe0a79ea0 1
PC 7fafe0a79e29 1
PC 7fafe0a79e3c 1
PC 7fafe0a79e44 1
PC 7fafe0a79e72 1
PC 7fafe0a79e83 1
PC 7fafe0a79ea0 1
PC 7fafe0a79e0c 1
PC 7fafe0a79e16 1
PC 7fafe0a79e29 1
PC 7fafe0a79e3c 1
PC 7fafe0a79e44 1
PC 7fafe0a79e72 1
PC 7fafe0a79e83 1
PC 7fafe0a79ea0 1
PC 7fafe0a79e0c 1
PC 7fafe0a79e16 1
PC 7fafe0a79e29 1
PC 7fafe0a79e3c 1
PC 7fafe0a79e44 1
PC 7fafe0a7a017 1
PC 7fafe0a7a021 1
PC 7fafe0a7a04e 1
*** Reached end of trace for Core: 0 Repeating trace: tracer/testcase/myTrace/test41-a-b.xz
PC 7fafe0a26e46 1
PC 7fafe0a10575 1
PC 400465 1
PC 400475 100001
PC 7fafe0a2981e 1
PC 7fafe0a2982f 1
PC 7fafe0a2985d 1
PC 7fafe0a29876 1
PC 7fafe0a29883 1
PC 7fafe0a298a7 1
PC 7fafe0a299d7 1
PC 7faff506d18d 1
PC 7fafe0a8293d 1
PC 7fafe0a829ee 1
PC 7fafe0a829f9 1
PC 7fafe0a82a54 1
PC 7fafe0a82a5d 1
PC 7fafe0a82a63 1
PC 7fafe0a82a70 1
PC 7faff506d1b2 1
PC 7faff506d27f 1
PC 7faff506d2b0 1
PC 7faff506d2b4 1
PC 7faff506d2b0 1
PC 7faff506d2b4 1
PC 7faff506d2b0 1
PC 7faff506d2b4 1
PC 7faff506d2b0 1
PC 7faff506d2b4 1
PC 7faff506d2b0 1
PC 7faff506d2b4 1
PC 7faff506d2b0 1
PC 7faff506d2b4 1
PC 7faff506d2b0 1
PC 7faff506d2b4 1
PC 7faff506d2d7 7
PC 7faff506d2e1 1
PC 7faff506d2e5 1
PC 7faff5079c51 1
PC 7faff5079c6e 7
PC 7faff5079cb1 1
PC 7faff5079d08 1
PC 7faff5079cf7 1
PC 7faff5079d08 1
PC 7faff507985f 1
PC 7faff5079867 1
PC 7faff5079875 1
PC 7faff5079875 1
PC 7faff5079882 2
PC 7faff5079cf7 1
PC 7faff5079d08 1
PC 7faff507985f 1
PC 7faff5079867 1
PC 7faff5079875 1
PC 7faff5079875 1
PC 7faff5079882 2
PC 7faff5079cf7 1
PC 7faff5079d08 1
PC 7faff507985f 1
PC 7faff5079867 1
PC 7faff5079875 1
PC 7faff5079875 1
PC 7faff5079875 1
PC 7faff5079882 3
PC 7faff5079cf7 1
PC 7faff5079d08 1
PC 7faff507985f 1
PC 7faff5079867 1
PC 7faff5079875 1
PC 7faff5079875 1
PC 7faff5079875 1
PC 7faff5079875 1
PC 7faff5079882 4
PC 7faff5079cf7 1
PC 7faff5079d08 1
PC 7faff5079cf7 1
PC 7faff5079d08 1
PC 7faff507985f 1
PC 7faff5079867 1
PC 7faff5079875 1
PC 7faff5079875 1
PC 7faff5079875 1
PC 7faff5079875 1
PC 7faff5079875 1
PC 7faff5079875 1
PC 7faff5079882 6
PC 7faff5079d21 7
PC 7faff508cf8b 1
PC 7faff508d017 1
PC 7faff5079d8b 1
PC 7fafe0a84319 1
PC 7fafe0a843a7 1
PC 7fafe0a8433e 1
PC 7fafe0a84347 1
PC 7faff506d32d 1
PC 7faff506d35c 1
PC 7faff506928b 1
PC 7faff50692a3 1
PC 7faff50692b4 1
PC 40041b 1
PC 7faff50692d9 1
PC 7faff50692e5 1
PC 7faff5080eec 1
PC 7faff506d34f 1
PC 7faff506d34f 1
PC 7faff506d35c 2
PC 7faff506928b 1
PC 7faff50692a3 1
PC 7faff50692b4 1
PC 7fafe0c1b8db 1
PC 7fafe0c1b8e9 1
PC 7fafe0a2926c 1
PC 7fafe0a2927c 1
PC 7fafe0a29294 1
PC 7fafe0a29433 1
PC 7fafe0a29449 1
PC 7fafe0a29456 1
PC 7fafe0a29433 1
PC 7fafe0a29449 1
PC 7fafe0a29456 1
PC 7fafe0a29433 1
PC 7fafe0d2c44c 1
PC 7fafe0d2c451 1
PC 7fafe0a29449 1
PC 7fafe0a29456 1
PC 7fafe0a29433 1
PC 7fafe0c322c5 1
PC 7fafe0cb0bef 1
PC 7fafe0cb0e02 1
PC 7fafe0cb0c0a 1
PC 7fafe0a69127 1
PC 7fafe0a691cb 1
PC 7fafe0a6915c 1
PC 7fafe0a76c76 1
PC 7fafe0a69170 1
PC 7fafe0a69183 1
PC 7fafe0a69187 1
PC 7fafe0cb0c24 1
PC 7fafe0cb0bef 1
PC 7fafe0cb0db5 1
PC 7fafe0cb0bef 1
PC 7fafe0cb0e02 1
PC 7fafe0cb0c0a 1
PC 7fafe0a69127 1
PC 7fafe0a691cb 1
PC 7fafe0a6915c 1
PC 7fafe0a76c76 1
PC 7fafe0a69170 1
PC 7fafe0a69183 1
PC 7fafe0a69187 1
PC 7fafe0cb0c24 1
PC 7fafe0cb0ded 1
PC 7fafe0cb0c0a 1
PC 7fafe0a69127 1
PC 7fafe0a691cb 1
PC 7fafe0a6915c 1
PC 7fafe0a76c76 1
PC 7fafe0a69170 1
PC 7fafe0a69183 1
PC 7fafe0a69187 1
PC 7fafe0cb0c24 1
PC 7fafe0cb0c3a 1
PC 7fafe0cb0c41 1
PC 7fafe0cb0c4f 1
PC 7fafe0cb0c6b 1
PC 7fafe0a69127 1
PC 7fafe0a691cb 1
PC 7fafe0a6915c 1
PC 7fafe0a76c76 1
PC 7fafe0a69170 1
PC 7fafe0a69183 1
PC 7fafe0a69187 1
PC 7fafe0cb0c76 1
PC 7fafe0cb0bef 1
PC 7fafe0cb0e02 1
PC 7fafe0cb0c0a 1
PC 7fafe0a69127 1
PC 7fafe0a691cb 1
PC 7fafe0a6915c 1
PC 7fafe0a76c76 1
PC 7fafe0a69170 1
PC 7fafe0a69183 1
PC 7fafe0a69187 1
PC 7fafe0cb0c24 1
PC 7fafe0cb3b2f 1
PC 7fafe0cb3d42 1
PC 7fafe0cb3b4a 1
PC 7fafe0a69127 1
PC 7fafe0a691cb 1
PC 7fafe0a6915c 1
PC 7fafe0a76c76 1
PC 7fafe0a69170 1
PC 7fafe0a69183 1
PC 7fafe0a69187 1
PC 7fafe0cb3b64 1
PC 7fafe0cb3b2f 1
PC 7fafe0cb3cf5 1
PC 7fafe0cb3b2f 1
PC 7fafe0cb3d42 1
PC 7fafe0cb3b4a 1
PC 7fafe0a69127 1
PC 7fafe0a691cb 1
PC 7fafe0a6915c 1
PC 7fafe0a76c76 1
PC 7fafe0a69170 1
PC 7fafe0a69183 1
PC 7fafe0a69187 1
PC 7fafe0cb3b64 1
PC 7fafe0cb3d2d 1
PC 7fafe0cb3b4a 1
PC 7fafe0a69127 1
PC 7fafe0a691cb 1
PC 7fafe0a6915c 1
PC 7fafe0a76c76 1
PC 7fafe0a69170 1
PC 7fafe0a69183 1
PC 7fafe0a69187 1
PC 7fafe0cb3b64 1
PC 7fafe0cb3b7a 1
PC 7fafe0cb3b81 1
PC 7fafe0cb3b8f 1
PC 7fafe0cb3bab 1
PC 7fafe0a69127 1
PC 7fafe0a691cb 1
PC 7fafe0a6915c 1
PC 7fafe0a76c76 1
PC 7fafe0a69170 1
PC 7fafe0a69183 1
PC 7fafe0a69187 1
PC 7fafe0cb3bb6 1
PC 7fafe0cb3b2f 1
PC 7fafe0cb3d42 1
PC 7fafe0cb3b4a 1
PC 7fafe0a69127 1
PC 7fafe0a691cb 1
PC 7fafe0a6915c 1
PC 7fafe0a76c76 1
PC 7fafe0a69170 1
PC 7fafe0a69183 1
PC 7fafe0a69187 1
PC 7fafe0cb3b64 1
PC 7fafe0a29449 1
PC 7fafe0a29456 1
PC 7fafe0a29463 4
PC 7fafe0a292d6 1
PC 7fafe0a292e2 1
PC 7fafe0a29329 1
PC 7fafe0a2932e 1
PC 7fafe0ae941e 1
PC 7fafe0ae954b 1
PC 7fafe0a29341 1
PC 7faff50692d9 1
PC 7faff50692e5 1
PC 7faff5080eec 1
PC 7faff506d34f 1
PC 7faff506d35c 1
PC 7faff506928b 1
PC 7faff50692a3 1
PC 7faff50692b4 1
PC 7fafe0f0b8ab 1
PC 7fafe0f0b8b9 1
PC 7fafe0a2926c 1
PC 7fafe0a2927c 1
PC 7fafe0a29294 1
PC 7fafe0a29384 5
PC 7fafe0a2938d 1
PC 7fafe0a29397 1
PC 7fafe0a29384 1
PC 7fafe0a2938d 1
PC 7fafe0a29397 1
PC 7fafe0a293a0 2
PC 7fafe0a293a8 1
PC 7fafe0a292e2 1
PC 7fafe0a29329 1
PC 7fafe0a2932e 1
PC 7fafe0ae941e 1
PC 7fafe0ae954b 1
PC 7fafe0a29341 1
PC 7faff50692d9 1
PC 7faff50692e5 1
PC 7faff5080eec 1
PC 7faff506d34f 1
PC 7faff506d35c 1
PC 7faff506928b 1
PC 7faff50692a3 1
PC 7faff50692b4 1
PC 7fafe1254b61 1
PC 7fafe1254b61 1
PC 7fafe1255d3b 1
PC 7fafe1255d49 1
PC 7fafe0a2926c 1
PC 7fafe0a2927c 1
PC 7fafe0a29294 1
PC 7fafe0a29384 1
PC 7fafe0a2938d 1
PC 7fafe0a29397 1
PC 7fafe0a29384 1
PC 7fafe0a2938d 1
PC 7fafe0a29397 1
PC 7fafe0a293a0 2
PC 7fafe0a293a8 1
PC 7fafe0a292e2 1
PC 7fafe0a29329 1
PC 7fafe0a2932e 1
PC 7fafe0ae941e 1
PC 7fafe0ae954b 1
PC 7fafe0a29341 1
PC 7faff50692d9 2
PC 7faff50692e5 1
PC 7faff5080eec 1
PC 7faff506d34f 1
PC 7faff506d35c 1
PC 7faff506928b 1
PC 7faff5080eec 1
PC 7faff506d34f 1
PC 7faff506d35c 1
PC 7faff506928b 1
PC 7faff5080eec 1
PC 7faff506d1df 1
PC 7faff506d1e5 1
PC 7faff506d1fc 1
PC 7faff506d205 1
PC 7fafe0a29902 1
PC 7fafe0a298a7 1
PC 7fafe0a298b1 1
PC 7fafe0a29883 1
PC 7fafe0a298a7 1
PC 7fafe0a298b1 1
PC 7fafe0a29883 1
PC 7fafe0a298a7 1
PC 7fafe0a298b1 1
PC 7fafe0a29883 1
PC 7fafe0a298a7 1
PC 7fafe0a298b1 1
PC 7fafe0a2994e 1
PC 7fafe0a7c3a9 1
PC 7fafe0a79655 1
PC 7fafe0a79763 1
PC 7fafe0a79780 1
PC 7fafe0a797ba 1
PC 7fafe0a797c8 1
PC 7fafe0a797cf 1
PC 7fafe0a797dd 1
PC 7fafe0a796fc 1
PC 7fafe0a7970f 1
PC 7fafe0a79717 1
PC 7fafe0a79752 1
PC 7fafe0a79763 1
PC 7fafe0a79780 1
PC 7fafe0a797ba 1
PC 7fafe0a797c8 1
PC 7fafe0a797cf 1
PC 7fafe0a797dd 1
PC 7fafe0a796fc 1
PC 7fafe0a7970f 1
PC 7fafe0a79717 1
PC 7fafe0a79752 1
PC 7fafe0a79763 1
PC 7fafe0a79780 1
PC 7fafe0a797ba 1
PC 7fafe0a797c8 1
PC 7fafe0a797cf 1
PC 7fafe0a797dd 1
PC 7fafe0a796fc 1
PC 7fafe0a7970f 1
PC 7fafe0a79717 1
PC 7fafe0a798b7 1
PC 7fafe0a798c1 1
PC 7fafe0a798ee 1
PC 7fafe0a7c3a9 1
PC 7fafe0a79dad 1
PC 7fafe0a79e83 1
PC 7fafe0a79ea0 1
PC 7fafe0a79e29 1
PC 7fafe0a79e3c 1
PC 7fafe0a79e44 1
PC 7fafe0a79e72 1
PC 7fafe0a79e83 1
PC 7fafe0a79ea0 1
PC 7fafe0a79e0c 1
PC 7fafe0a79e16 1
PC 7fafe0a79e29 1
PC 7fafe0a79e3c 1
PC 7fafe0a79e44 1
PC 7fafe0a79e72 1
PC 7fafe0a79e83 1
PC 7fafe0a79ea0 1
PC 7fafe0a79e0c 1
PC 7fafe0a79e16 1
PC 7fafe0a79e29 1
PC 7fafe0a79e3c 1
PC 7fafe0a79e44 1
PC 7fafe0a7a017 1
PC 7fafe0a7a021 1
PC 7fafe0a7a04e 1
*** Reached end of trace for Core: 0 Repeating trace: tracer/testcase/myTrace/test41-a-b.xz
PC 7fafe0a26e46 1
PC 7fafe0a10575 1
Finished CPU 0 instructions: 6000000 cycles: 17246018 cumulative IPC: 0.347906 (Simulation time: 0 hr 0 min 11 sec) 

ChampSim completed all CPUs

Region of Interest Statistics

CPU 0 cumulative IPC: 0.347906 instructions: 6000000 cycles: 17246018
ITLB TOTAL     ACCESS:     750042  HIT:     749914  MISS:        128  HIT %:    99.9829  MISS %:  0.0170657   MPKI: 0.0213333
ITLB LOAD TRANSLATION ACCESS:     750042  HIT:     749914  MISS:        128  HIT %:    99.9829  MISS %:  0.0170657   MPKI: 0.0213333
ITLB PREFETCH  REQUESTED:          0  ISSUED:          0  USEFUL:          0  USELESS:          0
ITLB USEFUL LOAD PREFETCHES:          0 PREFETCH ISSUED TO LOWER LEVEL:          0  ACCURACY: -nan
ITLB TIMELY PREFETCHES:          0 LATE PREFETCHES: 0 DROPPED PREFETCHES: 0
ITLB PREFETCHES SAME FILL-ORIGIN LEVEL: 0 DIFFERENT FILL-ORIGIN LEVEL: 0
ITLB AVERAGE MISS LATENCY:          9 cycles AVERAGE LOAD MISS LATENCY:       -nan cycles Load Miss          0
ITLB Average MSHR Occupancy: 6.99292e-05
ITLB RQ	ACCESS:     750745	FORWARD:          0	MERGED:        610	TO_CACHE:     750135

DTLB TOTAL     ACCESS:    1819505  HIT:    1819505  MISS:          0  HIT %:        100  MISS %:          0   MPKI: 0
DTLB LOAD TRANSLATION ACCESS:    1819505  HIT:    1819505  MISS:          0  HIT %:        100  MISS %:          0   MPKI: 0
DTLB PREFETCH  REQUESTED:          0  ISSUED:          0  USEFUL:          0  USELESS:          0
DTLB USEFUL LOAD PREFETCHES:          0 PREFETCH ISSUED TO LOWER LEVEL:          0  ACCURACY: -nan
DTLB TIMELY PREFETCHES:          0 LATE PREFETCHES: 0 DROPPED PREFETCHES: 0
DTLB PREFETCHES SAME FILL-ORIGIN LEVEL: 0 DIFFERENT FILL-ORIGIN LEVEL: 0
DTLB AVERAGE MISS LATENCY:       -nan cycles AVERAGE LOAD MISS LATENCY:       -nan cycles Load Miss          0
DTLB Average MSHR Occupancy: 7.24805e-06
DTLB RQ	ACCESS:    1821493	FORWARD:          0	MERGED:       1988	TO_CACHE:    1819505

STLB TOTAL     ACCESS:        178  HIT:        178  MISS:          0  HIT %:        100  MISS %:          0   MPKI: 0
STLB LOAD TRANSLATION ACCESS:        128  HIT:        128  MISS:          0  HIT %:        100  MISS %:          0   MPKI: 0
STLB TRANSLATION FROM L1D PREFETCHER ACCESS:         50  HIT:         50  MISS:          0  HIT %:        100  MISS %:          0   MPKI: 0
STLB PREFETCH  REQUESTED:          0  ISSUED:          0  USEFUL:          0  USELESS:          0
STLB USEFUL LOAD PREFETCHES:          0 PREFETCH ISSUED TO LOWER LEVEL:          0  ACCURACY: -nan
STLB TIMELY PREFETCHES:          0 LATE PREFETCHES: 0 DROPPED PREFETCHES: 0
STLB PREFETCHES SAME FILL-ORIGIN LEVEL: 0 DIFFERENT FILL-ORIGIN LEVEL: 0
STLB AVERAGE MISS LATENCY:       -nan cycles AVERAGE LOAD MISS LATENCY:       -nan cycles Load Miss          0
STLB Average MSHR Occupancy: 1.38003e-05
STLB RQ	ACCESS:        264	FORWARD:          0	MERGED:         86	TO_CACHE:        178

STLB Hit, L1D data hit: 0
STLB Hit, L2C data hit: 0
STLB Hit, LLC data hit: 0
STLB Hit, LLC data miss: 0
STLB STLB hints to L2: 0
L1D TOTAL     ACCESS:    1821628  HIT:    1821626  MISS:          2  HIT %:    99.9999  MISS %: 0.000109792   MPKI: 0.000333333
L1D LOAD      ACCESS:     437301  HIT:     437301  MISS:          0  HIT %:        100  MISS %:          0   MPKI: 0
L1D RFO       ACCESS:    1384191  HIT:    1384191  MISS:          0  HIT %:        100  MISS %:          0   MPKI: 0
L1D PREFETCH  ACCESS:        136  HIT:        134  MISS:          2  HIT %:    98.5294  MISS %:    1.47059   MPKI: 0.000333333
AGUS PREFETCH L1 MISS: 0
L1D PREFETCH  REQUESTED:        296  ISSUED:        296  USEFUL:          0  USELESS:          0
L1D USEFUL LOAD PREFETCHES:          0 PREFETCH ISSUED TO LOWER LEVEL:          2  ACCURACY: 0
L1D TIMELY PREFETCHES:          0 LATE PREFETCHES: 0 DROPPED PREFETCHES: 0
L1D PREFETCHES SAME FILL-ORIGIN LEVEL: 2 DIFFERENT FILL-ORIGIN LEVEL: 0
L1D AVERAGE MISS LATENCY:        245 cycles AVERAGE LOAD MISS LATENCY:       -nan cycles Load Miss          0
L1D Average MSHR Occupancy: 6.00139e-05
L1D RQ	ACCESS:    1083259	FORWARD:          0	MERGED:     630904	TO_CACHE:     437301
L1D WQ	ACCESS:    1710810	FORWARD:      15054	MERGED:     326618	TO_CACHE:    1384192
L1D PQ	ACCESS:        160	FORWARD:          0	MERGED:         24	TO_CACHE:        136

L1D UNIQUE REGIONS ACCESSED: 0
L1D REGIONS CONFLICTS: 0
L1D Cross Page Prefetch Requests: 0
L1D Same Page Prefetch Requests: 170
L1D ROI Sum of L1D PQ occupancy: 1839
L1D PREFETCHES PUSHED FROM L2C: 0
L1I TOTAL     ACCESS:     750563  HIT:       1610  MISS:     748953  HIT %:   0.214506  MISS %:    99.7855   MPKI: 124.826
L1I LOAD      ACCESS:     750563  HIT:       1610  MISS:     748953  HIT %:   0.214506  MISS %:    99.7855   MPKI: 124.826
L1I PREFETCH  REQUESTED:          0  ISSUED:          0  USEFUL:          0  USELESS:          0
L1I USEFUL LOAD PREFETCHES:          0 PREFETCH ISSUED TO LOWER LEVEL:          0  ACCURACY: -nan
L1I TIMELY PREFETCHES:          0 LATE PREFETCHES: 0 DROPPED PREFETCHES: 0
L1I PREFETCHES SAME FILL-ORIGIN LEVEL: 0 DIFFERENT FILL-ORIGIN LEVEL: 0
L1I AVERAGE MISS LATENCY:    14.0004 cycles AVERAGE LOAD MISS LATENCY:    14.0004 cycles Load Miss     748953
L1I Average MSHR Occupancy:   0.564615
L1I RQ	ACCESS:    2245924	FORWARD:          0	MERGED:    1495179	TO_CACHE:     750745

BTB TOTAL     ACCESS:    1710277  HIT:    1709755  MISS:        522  HIT %:    99.9695  MISS %:  0.0305214   MPKI: 0.087
BTB BRANCH_DIRECT_JUMP	ACCESS:        720  HIT:        683  MISS:         37
BTB BRANCH_INDIRECT	ACCESS:         32  HIT:          0  MISS:         32
BTB BRANCH_CONDITIONAL	ACCESS:    1707941  HIT:    1707863  MISS:         78
BTB BRANCH_DIRECT_CALL	ACCESS:        536  HIT:        494  MISS:         42
BTB BRANCH_INDIRECT_CALL	ACCESS:        264  HIT:        184  MISS:         80
BTB BRANCH_RETURN	ACCESS:        784  HIT:        531  MISS:        253
BTB BRANCH_OTHER ACCESS:          0  HIT:          0  MISS:          0

L2C TOTAL     ACCESS:     748956  HIT:     748954  MISS:          2  HIT %:    99.9997  MISS %: 0.000267038   MPKI: 0.000333333
L2C LOAD      ACCESS:     748954  HIT:     748954  MISS:          0  HIT %:        100  MISS %:          0   MPKI: 0
L2C DATA LOAD MPKI: 0
L2C INSTRUCTION LOAD MPKI: 0
L2C PREFETCH  ACCESS:          2  HIT:          0  MISS:          2  HIT %:          0  MISS %:        100   MPKI: 0.000333333
AGUS PREFETCH L1 MISS: 0
L2C DATA PREFETCH MPKI: 0.000333333
L2C INSTRUCTION PREFETCH MPKI: 0
L2C PREFETCH  REQUESTED:          0  ISSUED:          0  USEFUL:          0  USELESS:          0
L2C USEFUL LOAD PREFETCHES:          0 PREFETCH ISSUED TO LOWER LEVEL:          2  ACCURACY: 0
L2C TIMELY PREFETCHES:          0 LATE PREFETCHES: 0 DROPPED PREFETCHES: 0
L2C PREFETCHES SAME FILL-ORIGIN LEVEL: 0 DIFFERENT FILL-ORIGIN LEVEL: 0
L2C AVERAGE MISS LATENCY:        230 cycles AVERAGE LOAD MISS LATENCY:       -nan cycles Load Miss          0
L2C Average MSHR Occupancy: 4.90548e-05
L2C RQ	ACCESS:     748954	FORWARD:          0	MERGED:          0	TO_CACHE:     748954
L2C PQ	ACCESS:          2	FORWARD:          0	MERGED:          0	TO_CACHE:          2

L2C Instructions Evicting Data 0
L2C Translations Evicting Data 0
L2C Data Evicting Data 0
L2C Instructions Evicting Instructions 0
L2C Translations Evicting Instructions 0
L2C Data Evicting Instructions 0
L2C Instructions Evicting Translations 0
L2C Translations Evicting Translations 0
L2C Data Evicting Translations 0
L2C Dense regions hint from L2: 0
PSCL5 PREFETCH  REQUESTED:          0  ISSUED:          0  USEFUL:          0  USELESS:          0
PSCL5 USEFUL LOAD PREFETCHES:          0 PREFETCH ISSUED TO LOWER LEVEL:          0  ACCURACY: -nan
PSCL5 TIMELY PREFETCHES:          0 LATE PREFETCHES: 0 DROPPED PREFETCHES: 0
PSCL5 PREFETCHES SAME FILL-ORIGIN LEVEL: 0 DIFFERENT FILL-ORIGIN LEVEL: 0

PSCL4 PREFETCH  REQUESTED:          0  ISSUED:          0  USEFUL:          0  USELESS:          0
PSCL4 USEFUL LOAD PREFETCHES:          0 PREFETCH ISSUED TO LOWER LEVEL:          0  ACCURACY: -nan
PSCL4 TIMELY PREFETCHES:          0 LATE PREFETCHES: 0 DROPPED PREFETCHES: 0
PSCL4 PREFETCHES SAME FILL-ORIGIN LEVEL: 0 DIFFERENT FILL-ORIGIN LEVEL: 0

PSCL3 PREFETCH  REQUESTED:          0  ISSUED:          0  USEFUL:          0  USELESS:          0
PSCL3 USEFUL LOAD PREFETCHES:          0 PREFETCH ISSUED TO LOWER LEVEL:          0  ACCURACY: -nan
PSCL3 TIMELY PREFETCHES:          0 LATE PREFETCHES: 0 DROPPED PREFETCHES: 0
PSCL3 PREFETCHES SAME FILL-ORIGIN LEVEL: 0 DIFFERENT FILL-ORIGIN LEVEL: 0

PSCL2 PREFETCH  REQUESTED:          0  ISSUED:          0  USEFUL:          0  USELESS:          0
PSCL2 USEFUL LOAD PREFETCHES:          0 PREFETCH ISSUED TO LOWER LEVEL:          0  ACCURACY: -nan
PSCL2 TIMELY PREFETCHES:          0 LATE PREFETCHES: 0 DROPPED PREFETCHES: 0
PSCL2 PREFETCHES SAME FILL-ORIGIN LEVEL: 0 DIFFERENT FILL-ORIGIN LEVEL: 0

LLC TOTAL     ACCESS:          2  HIT:          0  MISS:          2  HIT %:          0  MISS %:        100   MPKI: 0.000333333
LLC PREFETCH  ACCESS:          2  HIT:          0  MISS:          2  HIT %:          0  MISS %:        100   MPKI: 0.000333333
AGUS PREFETCH L1 MISS: 0
LLC PREFETCH  REQUESTED:          0  ISSUED:          0  USEFUL:          0  USELESS:          0
LLC USEFUL LOAD PREFETCHES:          0 PREFETCH ISSUED TO LOWER LEVEL:          2  ACCURACY: 0
LLC TIMELY PREFETCHES:          0 LATE PREFETCHES: 0 DROPPED PREFETCHES: 0
LLC PREFETCHES SAME FILL-ORIGIN LEVEL: 0 DIFFERENT FILL-ORIGIN LEVEL: 0
LLC AVERAGE MISS LATENCY:        185 cycles AVERAGE LOAD MISS LATENCY:       -nan cycles Load Miss          0
LLC Average MSHR Occupancy: 2.13383e-05
LLC PQ	ACCESS:          2	FORWARD:          0	MERGED:          0	TO_CACHE:          2

LLC Dense regions hint to LLC: 0

RAW hits: 2338443
Loads Generated: 3421617
Loads sent to L1D: 1083259
Stores Generated: 1710808
Stores sent to L1D: 1710810
Major fault: 0 Minor fault: 82
Allocated PAGES: 82
CPU 0 L1D PC-based stride prefetcher final stats
Degree: 3
 All Calls: 156
 Critical Calls: 156
------------------
Depth Distribution
------------------
depth 0: 0
depth 1: 2
depth 2: 0
depth 3: 0
depth 4: 0
depth 5: 0
depth 6: 0
depth 7: 0
depth 8: 0
depth 9: 0
depth 10: 0
depth 11: 0
depth 12: 0
depth 13: 0
depth 14: 0
depth 15: 0
depth 16: 0
depth 17: 0
depth 18: 0
depth 19: 0
depth 20: 0
depth 21: 0
depth 22: 0
depth 23: 0
depth 24: 0
depth 25: 0
depth 26: 0
depth 27: 0
depth 28: 0
depth 29: 0
Total: 2
-----------------------------
-----------------------------
	Captured at Filter
-----------------------------
depth 0: 0
depth 1: 0
depth 2: 0
depth 3: 0
depth 4: 0
depth 5: 0
depth 6: 0
depth 7: 0
depth 8: 0
depth 9: 0
depth 10: 0
depth 11: 0
depth 12: 0
depth 13: 0
depth 14: 0
depth 15: 0
depth 16: 0
depth 17: 0
depth 18: 0
depth 19: 0
depth 20: 0
depth 21: 0
depth 22: 0
depth 23: 0
depth 24: 0
depth 25: 0
depth 26: 0
depth 27: 0
depth 28: 0
depth 29: 0
-----------------------------
-----------------------------
		Lost at Page
-----------------------------
depth 0: 0
depth 1: 0
depth 2: 0
depth 3: 0
depth 4: 0
depth 5: 0
depth 6: 0
depth 7: 0
depth 8: 0
depth 9: 0
depth 10: 0
depth 11: 0
depth 12: 0
depth 13: 0
depth 14: 0
depth 15: 0
depth 16: 0
depth 17: 0
depth 18: 0
depth 19: 0
depth 20: 0
depth 21: 0
depth 22: 0
depth 23: 0
depth 24: 0
depth 25: 0
depth 26: 0
depth 27: 0
depth 28: 0
depth 29: 0
-----------------------------
-----------------------------
	Lost due to PQ Size
-----------------------------
0
-----------------------------
ST read accesses: 2
ST write accesses: 0
PT read accesses: 16
PT write accesses: 2
FILTER read accesses: 4
FILTER write accesses: 2
GHR read accesses: 0
GHR write accesses: 0
GHR counter read accesses: 4
GHR counter write accesses: 2
ST tag read accesses: 524
ST tag write accesses: 5
================ Mockingjay (LLC) Pollution Stats ================
Total pollution count in LLC: 0
==================================================================

DRAM Statistics
 CHANNEL 0
 RQ ROW_BUFFER_HIT:          0  ROW_BUFFER_MISS:          2
 DBUS_CONGESTED:          0
 WQ ROW_BUFFER_HIT:          0  ROW_BUFFER_MISS:          0  FULL:          0

 AVG_CONGESTED_CYCLE: -
 All warmup complete: 2
Channel 0 Bank busy for read cycles: 0
Channel 0 Bank busy for write cycles: 0
Channel 0
Rank 0
0banks busy for read cycles: 17245868
0banks busy for write cycles: 0
1banks busy for read cycles: 2
1banks busy for write cycles: 0
2banks busy for read cycles: 149
2banks busy for write cycles: 0
3banks busy for read cycles: 0
3banks busy for write cycles: 0
4banks busy for read cycles: 0
4banks busy for write cycles: 0
5banks busy for read cycles: 0
5banks busy for write cycles: 0
6banks busy for read cycles: 0
6banks busy for write cycles: 0
7banks busy for read cycles: 0
7banks busy for write cycles: 0
8banks busy for read cycles: 0
8banks busy for write cycles: 0

CPU 0 Branch Prediction Accuracy: 99.999% MPKI: 0.00283333 Average ROB Occupancy at Mispredict: 5.82353
Branch types
NOT_BRANCH: 4286449 71.4408%
BRANCH_DIRECT_JUMP: 720 0.012%
BRANCH_INDIRECT: 32 0.000533333%
BRANCH_CONDITIONAL: 1710615 28.5102%
BRANCH_DIRECT_CALL: 536 0.00893333%
BRANCH_INDIRECT_CALL: 264 0.0044%
BRANCH_RETURN: 784 0.0130667%
BRANCH_OTHER: 0 0%

===================== LRU L1D STATS =====================
Total pollution count in L1D: 0
=========================================================
================ SRRIP (L2C) Pollution Stats ================
Total pollution count in L2c: 0
==================================================================
Loop Predictor Table: 
PC: 7fafe0a79f0b, Branch Target: 7fafe0a79e08, Trip Count: 0, Non-speculative Counter: 27
PC: 7fafe0a298bb, Branch Target: 7fafe0a2987c, Trip Count: 0, Non-speculative Counter: 36
PC: 7fafe0a2990f, Branch Target: 7fafe0a29889, Trip Count: 0, Non-speculative Counter: 9
PC: 7fafe0a299ec, Branch Target: 7fafe0a298f8, Trip Count: 0, Non-speculative Counter: 9
PC: 7faff50798e2, Branch Target: 7faff5079889, Trip Count: 0, Non-speculative Counter: 63
PC: 7faff5079d21, Branch Target: 7faff5079cf0, Trip Count: 7, Non-speculative Counter: 0
PC: 400475, Branch Target: 400451, Trip Count: 100001, Non-speculative Counter: 95388
PC: 7faff506d2d7, Branch Target: 7faff506d2ac, Trip Count: 7, Non-speculative Counter: 0
PC: 7fafe0a7a0fb, Branch Target: 7fafe0a79ded, Trip Count: 0, Non-speculative Counter: 9
PC: 7faff5079882, Branch Target: 7faff507986e, Trip Count: 6, Non-speculative Counter: 0
PC: 7faff508d021, Branch Target: 7faff508cff1, Trip Count: 0, Non-speculative Counter: 9
PC: 7fafe0a843c1, Branch Target: 7fafe0a8432a, Trip Count: 0, Non-speculative Counter: 9
PC: 7fafe0a799b6, Branch Target: 7fafe0a79695, Trip Count: 0, Non-speculative Counter: 9
PC: 7fafe0a29384, Branch Target: 7fafe0a29360, Trip Count: 1, Non-speculative Counter: 0
DRAM PAGES: 1048576
Allocated PAGES: 82



 $PIN_ROOT/pin -t obj-intel64/champsim_tracer.so \                                             
-s 2609300  -t 5218000 -o ./testcase/myTrace/test41-a-b \
-- ./testcase/test4 && rm -rf ./testcase/myTrace/test41-a-b.xz  && xz ./testcase/myTrace/test41-a-b