Initialize SIGNATURE TABLE
ST_SET: 1
ST_WAY: 256
ST_TAG_BIT: 16
ST_TAG_MASK: ffff

Initialize PATTERN TABLE
PT_SET: 512
PT_WAY: 4
SIG_DELTA_BIT: 7
C_SIG_BIT: 4
C_DELTA_BIT: 4

Initialize PREFETCH FILTER
FILTER_SET: 1024

*** ChampSim Multicore Out-of-Order Simulator ***

Warmup Instructions: 5000000
Simulation Instructions: 4500000
Number of CPUs: 1
LLC sets: 4096
LLC ways: 12
Off-chip DRAM Size: 4096 MB Channels: 1 Width: 64-bit Data Rate: 6400 MT/s
CPU 0 runs tracer/testcase/myTrace/test3-a-b.xz
.xz
BTB has LRU replacement policy
ITLB has LRU replacement policy
DTLB has LRU replacement policy
STLB has LRU replacement policy
L1I has LRU replacement policy
CPU 0 L1D IP-based stride prefetcher
L1D has LRU replacement policy
ST_WAYS: 256
PT_SETS: 512
Initialize SRRIP state for L2C
Initialize Mockingjay state for LLC

Warmup complete CPU 0 instructions: 5000001 cycles: 1250010 (Simulation time: 0 hr 0 min 3 sec) 

*** Reached end of trace for Core: 0 Repeating trace: tracer/testcase/myTrace/test3-a-b.xz
Finished CPU 0 instructions: 4500001 cycles: 7308439 cumulative IPC: 0.615727 (Simulation time: 0 hr 0 min 13 sec) 

ChampSim completed all CPUs

Region of Interest Statistics

CPU 0 cumulative IPC: 0.615727 instructions: 4500001 cycles: 7308439
ITLB TOTAL     ACCESS:     701357  HIT:     701340  MISS:         17  HIT %:    99.9976  MISS %: 0.00242387   MPKI: 0.00377778
ITLB LOAD TRANSLATION ACCESS:     701357  HIT:     701340  MISS:         17  HIT %:    99.9976  MISS %: 0.00242387   MPKI: 0.00377778
ITLB PREFETCH  REQUESTED:          0  ISSUED:          0  USEFUL:          0  USELESS:          0
ITLB USEFUL LOAD PREFETCHES:          0 PREFETCH ISSUED TO LOWER LEVEL:          0  ACCURACY: -nan
ITLB TIMELY PREFETCHES:          0 LATE PREFETCHES: 0 DROPPED PREFETCHES: 0
ITLB PREFETCHES SAME FILL-ORIGIN LEVEL: 0 DIFFERENT FILL-ORIGIN LEVEL: 0
ITLB AVERAGE MISS LATENCY:    254.706 cycles AVERAGE LOAD MISS LATENCY:       -nan cycles Load Miss          0
ITLB Average MSHR Occupancy: 0.000359995
ITLB RQ	ACCESS:     701394	FORWARD:          0	MERGED:         35	TO_CACHE:     701359

DTLB TOTAL     ACCESS:     908569  HIT:     908548  MISS:         21  HIT %:    99.9977  MISS %: 0.00231133   MPKI: 0.00466667
DTLB LOAD TRANSLATION ACCESS:     908569  HIT:     908548  MISS:         21  HIT %:    99.9977  MISS %: 0.00231133   MPKI: 0.00466667
DTLB PREFETCH  REQUESTED:          0  ISSUED:          0  USEFUL:          0  USELESS:          0
DTLB USEFUL LOAD PREFETCHES:          0 PREFETCH ISSUED TO LOWER LEVEL:          0  ACCURACY: -nan
DTLB TIMELY PREFETCHES:          0 LATE PREFETCHES: 0 DROPPED PREFETCHES: 0
DTLB PREFETCHES SAME FILL-ORIGIN LEVEL: 0 DIFFERENT FILL-ORIGIN LEVEL: 0
DTLB AVERAGE MISS LATENCY:    210.667 cycles AVERAGE LOAD MISS LATENCY:       -nan cycles Load Miss          0
DTLB Average MSHR Occupancy: 0.000305537
DTLB RQ	ACCESS:     909543	FORWARD:          0	MERGED:        972	TO_CACHE:     908571

STLB TOTAL     ACCESS:         43  HIT:          5  MISS:         38  HIT %:    11.6279  MISS %:    88.3721   MPKI: 0.00844444
STLB LOAD TRANSLATION ACCESS:         38  HIT:          0  MISS:         38  HIT %:          0  MISS %:        100   MPKI: 0.00844444
STLB TRANSLATION FROM L1D PREFETCHER ACCESS:          5  HIT:          5  MISS:          0  HIT %:        100  MISS %:          0   MPKI: 0
STLB PREFETCH  REQUESTED:          0  ISSUED:          0  USEFUL:          0  USELESS:          0
STLB USEFUL LOAD PREFETCHES:          0 PREFETCH ISSUED TO LOWER LEVEL:          0  ACCURACY: -nan
STLB TIMELY PREFETCHES:          0 LATE PREFETCHES: 0 DROPPED PREFETCHES: 0
STLB PREFETCHES SAME FILL-ORIGIN LEVEL: 0 DIFFERENT FILL-ORIGIN LEVEL: 0
STLB AVERAGE MISS LATENCY:    221.368 cycles AVERAGE LOAD MISS LATENCY:       -nan cycles Load Miss          0
STLB Average MSHR Occupancy: 0.000618326
STLB RQ	ACCESS:         49	FORWARD:          0	MERGED:          6	TO_CACHE:         43

STLB Hit, L1D data hit: 0
STLB Hit, L2C data hit: 0
STLB Hit, LLC data hit: 0
STLB Hit, LLC data miss: 0
STLB STLB hints to L2: 0
L1D TOTAL     ACCESS:     909541  HIT:     909455  MISS:         86  HIT %:    99.9905  MISS %: 0.00945532   MPKI: 0.0191111
L1D LOAD      ACCESS:       3108  HIT:       3043  MISS:         65  HIT %:    97.9086  MISS %:    2.09138   MPKI: 0.0144444
L1D RFO       ACCESS:     906422  HIT:     906407  MISS:         15  HIT %:    99.9983  MISS %: 0.00165486   MPKI: 0.00333333
L1D PREFETCH  ACCESS:         11  HIT:          5  MISS:          6  HIT %:    45.4545  MISS %:    54.5455   MPKI: 0.00133333
AGUS PREFETCH L1 MISS: 0
L1D PREFETCH  REQUESTED:         22  ISSUED:         22  USEFUL:          1  USELESS:          0
L1D USEFUL LOAD PREFETCHES:          1 PREFETCH ISSUED TO LOWER LEVEL:          6  ACCURACY: 16.6667
L1D TIMELY PREFETCHES:          1 LATE PREFETCHES: 0 DROPPED PREFETCHES: 0
L1D PREFETCHES SAME FILL-ORIGIN LEVEL: 6 DIFFERENT FILL-ORIGIN LEVEL: 0
L1D AVERAGE MISS LATENCY:    207.151 cycles AVERAGE LOAD MISS LATENCY:    211.185 cycles Load Miss         65
L1D Average MSHR Occupancy: 0.00237438
L1D RQ	ACCESS:      17054	FORWARD:          0	MERGED:       2011	TO_CACHE:       3109
L1D WQ	ACCESS:    1800276	FORWARD:      11934	MERGED:     893842	TO_CACHE:     906434
L1D PQ	ACCESS:         11	FORWARD:          0	MERGED:          0	TO_CACHE:         11

L1D UNIQUE REGIONS ACCESSED: 0
L1D REGIONS CONFLICTS: 0
L1D Cross Page Prefetch Requests: 0
L1D Same Page Prefetch Requests: 11
L1D ROI Sum of L1D PQ occupancy: 147
L1D PREFETCHES PUSHED FROM L2C: 0
L1I TOTAL     ACCESS:     701394  HIT:     701285  MISS:        109  HIT %:    99.9845  MISS %:  0.0155405   MPKI: 0.0242222
L1I LOAD      ACCESS:     701394  HIT:     701285  MISS:        109  HIT %:    99.9845  MISS %:  0.0155405   MPKI: 0.0242222
L1I PREFETCH  REQUESTED:          0  ISSUED:          0  USEFUL:          0  USELESS:          0
L1I USEFUL LOAD PREFETCHES:          0 PREFETCH ISSUED TO LOWER LEVEL:          0  ACCURACY: -nan
L1I TIMELY PREFETCHES:          0 LATE PREFETCHES: 0 DROPPED PREFETCHES: 0
L1I PREFETCHES SAME FILL-ORIGIN LEVEL: 0 DIFFERENT FILL-ORIGIN LEVEL: 0
L1I AVERAGE MISS LATENCY:    140.532 cycles AVERAGE LOAD MISS LATENCY:    140.532 cycles Load Miss        109
L1I Average MSHR Occupancy: 0.00204065
L1I RQ	ACCESS:    1555728	FORWARD:          0	MERGED:     854334	TO_CACHE:     701394

BTB TOTAL     ACCESS:     899875  HIT:     899785  MISS:         90  HIT %:      99.99  MISS %:  0.0100014   MPKI: 0.02
BTB BRANCH_DIRECT_JUMP	ACCESS:         15  HIT:          1  MISS:         14
BTB BRANCH_INDIRECT	ACCESS:          1  HIT:          0  MISS:          1
BTB BRANCH_CONDITIONAL	ACCESS:     899808  HIT:     899770  MISS:         38
BTB BRANCH_DIRECT_CALL	ACCESS:         22  HIT:          7  MISS:         15
BTB BRANCH_INDIRECT_CALL	ACCESS:          7  HIT:          0  MISS:          7
BTB BRANCH_RETURN	ACCESS:         22  HIT:          7  MISS:         15
BTB BRANCH_OTHER ACCESS:          0  HIT:          0  MISS:          0

L2C TOTAL     ACCESS:        234  HIT:         46  MISS:        188  HIT %:    19.6581  MISS %:    80.3419   MPKI: 0.0417778
L2C LOAD      ACCESS:        174  HIT:         30  MISS:        144  HIT %:    17.2414  MISS %:    82.7586   MPKI: 0.032
L2C DATA LOAD MPKI: 0.0144444
L2C INSTRUCTION LOAD MPKI: 0.0175556
L2C RFO       ACCESS:         15  HIT:          0  MISS:         15  HIT %:          0  MISS %:        100   MPKI: 0.00333333
L2C PREFETCH  ACCESS:          7  HIT:          1  MISS:          6  HIT %:    14.2857  MISS %:    85.7143   MPKI: 0.00133333
AGUS PREFETCH L1 MISS: 0
L2C DATA PREFETCH MPKI: 0.00133333
L2C INSTRUCTION PREFETCH MPKI: 0
L2C LOAD TRANSLATION ACCESS:         38  HIT:         15  MISS:         23  HIT %:    39.4737  MISS %:    60.5263   MPKI: 0.00511111
L2C PREFETCH  REQUESTED:          1  ISSUED:          1  USEFUL:          0  USELESS:          0
L2C USEFUL LOAD PREFETCHES:          0 PREFETCH ISSUED TO LOWER LEVEL:          6  ACCURACY: 0
L2C TIMELY PREFETCHES:          0 LATE PREFETCHES: 0 DROPPED PREFETCHES: 0
L2C PREFETCHES SAME FILL-ORIGIN LEVEL: 0 DIFFERENT FILL-ORIGIN LEVEL: 0
L2C AVERAGE MISS LATENCY:    182.431 cycles AVERAGE LOAD MISS LATENCY:     183.59 cycles Load Miss        144
L2C Average MSHR Occupancy: 0.00458648
L2C RQ	ACCESS:        227	FORWARD:          0	MERGED:          0	TO_CACHE:        227
L2C PQ	ACCESS:          7	FORWARD:          0	MERGED:          0	TO_CACHE:          7

L2C Instructions Evicting Data 0
L2C Translations Evicting Data 0
L2C Data Evicting Data 0
L2C Instructions Evicting Instructions 0
L2C Translations Evicting Instructions 0
L2C Data Evicting Instructions 0
L2C Instructions Evicting Translations 0
L2C Translations Evicting Translations 0
L2C Data Evicting Translations 0
L2C Dense regions hint from L2: 0
PSCL5 TOTAL     ACCESS:         38  HIT:         38  MISS:          0  HIT %:        100  MISS %:          0   MPKI: 0
PSCL5 LOAD TRANSLATION ACCESS:         38  HIT:         38  MISS:          0  HIT %:        100  MISS %:          0   MPKI: 0
PSCL5 PREFETCH  REQUESTED:          0  ISSUED:          0  USEFUL:          0  USELESS:          0
PSCL5 USEFUL LOAD PREFETCHES:          0 PREFETCH ISSUED TO LOWER LEVEL:          0  ACCURACY: -nan
PSCL5 TIMELY PREFETCHES:          0 LATE PREFETCHES: 0 DROPPED PREFETCHES: 0
PSCL5 PREFETCHES SAME FILL-ORIGIN LEVEL: 0 DIFFERENT FILL-ORIGIN LEVEL: 0

PSCL4 TOTAL     ACCESS:         38  HIT:         37  MISS:          1  HIT %:    97.3684  MISS %:    2.63158   MPKI: 0.000222222
PSCL4 LOAD TRANSLATION ACCESS:         38  HIT:         37  MISS:          1  HIT %:    97.3684  MISS %:    2.63158   MPKI: 0.000222222
PSCL4 PREFETCH  REQUESTED:          0  ISSUED:          0  USEFUL:          0  USELESS:          0
PSCL4 USEFUL LOAD PREFETCHES:          0 PREFETCH ISSUED TO LOWER LEVEL:          0  ACCURACY: -nan
PSCL4 TIMELY PREFETCHES:          0 LATE PREFETCHES: 0 DROPPED PREFETCHES: 0
PSCL4 PREFETCHES SAME FILL-ORIGIN LEVEL: 0 DIFFERENT FILL-ORIGIN LEVEL: 0

PSCL3 TOTAL     ACCESS:         38  HIT:         36  MISS:          2  HIT %:    94.7368  MISS %:    5.26316   MPKI: 0.000444444
PSCL3 LOAD TRANSLATION ACCESS:         38  HIT:         36  MISS:          2  HIT %:    94.7368  MISS %:    5.26316   MPKI: 0.000444444
PSCL3 PREFETCH  REQUESTED:          0  ISSUED:          0  USEFUL:          0  USELESS:          0
PSCL3 USEFUL LOAD PREFETCHES:          0 PREFETCH ISSUED TO LOWER LEVEL:          0  ACCURACY: -nan
PSCL3 TIMELY PREFETCHES:          0 LATE PREFETCHES: 0 DROPPED PREFETCHES: 0
PSCL3 PREFETCHES SAME FILL-ORIGIN LEVEL: 0 DIFFERENT FILL-ORIGIN LEVEL: 0

PSCL2 TOTAL     ACCESS:         38  HIT:         32  MISS:          6  HIT %:    84.2105  MISS %:    15.7895   MPKI: 0.00133333
PSCL2 LOAD TRANSLATION ACCESS:         38  HIT:         32  MISS:          6  HIT %:    84.2105  MISS %:    15.7895   MPKI: 0.00133333
PSCL2 PREFETCH  REQUESTED:          0  ISSUED:          0  USEFUL:          0  USELESS:          0
PSCL2 USEFUL LOAD PREFETCHES:          0 PREFETCH ISSUED TO LOWER LEVEL:          0  ACCURACY: -nan
PSCL2 TIMELY PREFETCHES:          0 LATE PREFETCHES: 0 DROPPED PREFETCHES: 0
PSCL2 PREFETCHES SAME FILL-ORIGIN LEVEL: 0 DIFFERENT FILL-ORIGIN LEVEL: 0

LLC TOTAL     ACCESS:        188  HIT:          0  MISS:        188  HIT %:          0  MISS %:        100   MPKI: 0.0417778
LLC LOAD      ACCESS:        144  HIT:          0  MISS:        144  HIT %:          0  MISS %:        100   MPKI: 0.032
LLC RFO       ACCESS:         15  HIT:          0  MISS:         15  HIT %:          0  MISS %:        100   MPKI: 0.00333333
LLC PREFETCH  ACCESS:          6  HIT:          0  MISS:          6  HIT %:          0  MISS %:        100   MPKI: 0.00133333
AGUS PREFETCH L1 MISS: 0
LLC LOAD TRANSLATION ACCESS:         23  HIT:          0  MISS:         23  HIT %:          0  MISS %:        100   MPKI: 0.00511111
LLC PREFETCH  REQUESTED:          0  ISSUED:          0  USEFUL:          0  USELESS:          0
LLC USEFUL LOAD PREFETCHES:          0 PREFETCH ISSUED TO LOWER LEVEL:          6  ACCURACY: 0
LLC TIMELY PREFETCHES:          0 LATE PREFETCHES: 0 DROPPED PREFETCHES: 0
LLC PREFETCHES SAME FILL-ORIGIN LEVEL: 0 DIFFERENT FILL-ORIGIN LEVEL: 0
LLC AVERAGE MISS LATENCY:    136.872 cycles AVERAGE LOAD MISS LATENCY:    138.486 cycles Load Miss        144
LLC Average MSHR Occupancy: 0.00349514
LLC RQ	ACCESS:        182	FORWARD:          0	MERGED:          0	TO_CACHE:        182
LLC PQ	ACCESS:          6	FORWARD:          0	MERGED:          0	TO_CACHE:          6

LLC Dense regions hint to LLC: 0

RAW hits: 2682042
Loads Generated: 2699190
Loads sent to L1D: 17054
Stores Generated: 1800273
Stores sent to L1D: 1800276
Major fault: 0 Minor fault: 58
Allocated PAGES: 58
CPU 0 L1D PC-based stride prefetcher final stats
Degree: 3
 All Calls: 72
 Critical Calls: 72
------------------
Depth Distribution
------------------
depth 0: 0
depth 1: 1
depth 2: 0
depth 3: 0
depth 4: 0
depth 5: 0
depth 6: 0
depth 7: 0
depth 8: 0
depth 9: 0
depth 10: 0
depth 11: 0
depth 12: 0
depth 13: 0
depth 14: 0
depth 15: 0
depth 16: 0
depth 17: 0
depth 18: 0
depth 19: 0
depth 20: 0
depth 21: 0
depth 22: 0
depth 23: 0
depth 24: 0
depth 25: 0
depth 26: 0
depth 27: 0
depth 28: 0
depth 29: 0
Total: 1
-----------------------------
-----------------------------
	Captured at Filter
-----------------------------
depth 0: 0
depth 1: 0
depth 2: 0
depth 3: 0
depth 4: 0
depth 5: 0
depth 6: 0
depth 7: 0
depth 8: 0
depth 9: 0
depth 10: 0
depth 11: 0
depth 12: 0
depth 13: 0
depth 14: 0
depth 15: 0
depth 16: 0
depth 17: 0
depth 18: 0
depth 19: 0
depth 20: 0
depth 21: 0
depth 22: 0
depth 23: 0
depth 24: 0
depth 25: 0
depth 26: 0
depth 27: 0
depth 28: 0
depth 29: 0
-----------------------------
-----------------------------
		Lost at Page
-----------------------------
depth 0: 0
depth 1: 0
depth 2: 0
depth 3: 0
depth 4: 0
depth 5: 0
depth 6: 0
depth 7: 0
depth 8: 0
depth 9: 0
depth 10: 0
depth 11: 0
depth 12: 0
depth 13: 0
depth 14: 0
depth 15: 0
depth 16: 0
depth 17: 0
depth 18: 0
depth 19: 0
depth 20: 0
depth 21: 0
depth 22: 0
depth 23: 0
depth 24: 0
depth 25: 0
depth 26: 0
depth 27: 0
depth 28: 0
depth 29: 0
-----------------------------
-----------------------------
	Lost due to PQ Size
-----------------------------
0
-----------------------------
ST read accesses: 50
ST write accesses: 21
PT read accesses: 322
PT write accesses: 37
FILTER read accesses: 251
FILTER write accesses: 179
GHR read accesses: 168
GHR write accesses: 0
GHR counter read accesses: 174
GHR counter write accesses: 71
ST tag read accesses: 24334
ST tag write accesses: 395
================ Mockingjay (LLC) Pollution Stats ================
Total pollution count in LLC: 0
==================================================================

DRAM Statistics
 CHANNEL 0
 RQ ROW_BUFFER_HIT:         94  ROW_BUFFER_MISS:         94
 DBUS_CONGESTED:          0
 WQ ROW_BUFFER_HIT:          0  ROW_BUFFER_MISS:          0  FULL:          0

 AVG_CONGESTED_CYCLE: -
 All warmup complete: 2
Channel 0 Bank busy for read cycles: 0
Channel 0 Bank busy for write cycles: 0
Channel 0
Rank 0
0banks busy for read cycles: 7293238
0banks busy for write cycles: 0
1banks busy for read cycles: 12481
1banks busy for write cycles: 0
2banks busy for read cycles: 2034
2banks busy for write cycles: 0
3banks busy for read cycles: 545
3banks busy for write cycles: 0
4banks busy for read cycles: 94
4banks busy for write cycles: 0
5banks busy for read cycles: 48
5banks busy for write cycles: 0
6banks busy for read cycles: 0
6banks busy for write cycles: 0
7banks busy for read cycles: 0
7banks busy for write cycles: 0
8banks busy for read cycles: 0
8banks busy for write cycles: 0

CPU 0 Branch Prediction Accuracy: 99.8887% MPKI: 0.222667 Average ROB Occupancy at Mispredict: 516.473
Branch types
NOT_BRANCH: 3600605 80.0134%
BRANCH_DIRECT_JUMP: 15 0.000333333%
BRANCH_INDIRECT: 1 2.22222e-05%
BRANCH_CONDITIONAL: 899920 19.9982%
BRANCH_DIRECT_CALL: 22 0.000488889%
BRANCH_INDIRECT_CALL: 7 0.000155556%
BRANCH_RETURN: 22 0.000488889%
BRANCH_OTHER: 0 0%

===================== LRU L1D STATS =====================
Total pollution count in L1D: 0
=========================================================
================ SRRIP (L2C) Pollution Stats ================
Total pollution count in L2c: 0
==================================================================
Loop Predictor Table: 
PC: 7f6c2d029384, Branch Target: 7f6c2d029360, Trip Count: 0, Non-speculative Counter: 4
PC: 7f6c2d0843c1, Branch Target: 7f6c2d08432a, Trip Count: 0, Non-speculative Counter: 1
PC: 7f6c416e6021, Branch Target: 7f6c416e5ff1, Trip Count: 0, Non-speculative Counter: 1
PC: 400476, Branch Target: 400465, Trip Count: 1000, Non-speculative Counter: 887
PC: 40047c, Branch Target: 400451, Trip Count: 1000, Non-speculative Counter: 897
PC: 7f6c416d2d21, Branch Target: 7f6c416d2cf0, Trip Count: 7, Non-speculative Counter: 0
PC: 7f6c416c62d7, Branch Target: 7f6c416c62ac, Trip Count: 7, Non-speculative Counter: 0
PC: 7f6c416d2c6e, Branch Target: 7f6c416d2c5d, Trip Count: 7, Non-speculative Counter: 0
PC: 7f6c416d28e2, Branch Target: 7f6c416d2889, Trip Count: 0, Non-speculative Counter: 7
PC: 7f6c416d2882, Branch Target: 7f6c416d286e, Trip Count: 6, Non-speculative Counter: 0
DRAM PAGES: 1048576
Allocated PAGES: 58


$PIN_ROOT/pin -t obj-intel64/champsim_tracer.so \
-s 2610000 -t 5005500 -o ./testcase/myTrace/test3-a-b \
-- ./testcase/test3